frag.vs.001
  -OEChem-01121112253D

 26 26  0     0  0  0  0  0  0999 V2000
    0.1978    0.2857   -1.0427 C   0  0  0  0  0  0  0  0  0  0  0  0
   -0.5769    0.4511   -3.4111 C   0  0  0  0  0  0  0  0  0  0  0  0
   -1.8684   -0.9300   -1.7434 C   0  0  0  0  0  0  0  0  0  0  0  0
   -1.6538    1.5284   -3.2727 C   0  0  0  0  0  0  0  0  0  0  0  0
   -2.8909    0.2055   -1.6751 C   0  0  0  0  0  0  0  0  0  0  0  0
   -0.4835   -0.4384   -2.1696 C   0  0  0  0  0  0  0  0  0  0  0  0
    3.5556    1.7397   -1.0435 C   0  0  0  0  0  0  0  0  0  0  0  0
    2.2079    1.3803   -0.4551 C   0  0  0  0  0  0  0  0  0  0  0  0
   -2.9526    0.9479   -2.9337 N   0  0  0  0  0  0  0  0  0  0  0  0
   -0.3114    0.4827    0.0523 O   0  0  0  0  0  0  0  0  0  0  0  0
    1.4435    0.6746   -1.4378 O   0  0  0  0  0  0  0  0  0  0  0  0
   -0.8098   -0.1762   -4.2815 H   0  0  0  0  0  0  0  0  0  0  0  0
    0.3887    0.9300   -3.6139 H   0  0  0  0  0  0  0  0  0  0  0  0
   -1.8141   -1.4259   -0.7668 H   0  0  0  0  0  0  0  0  0  0  0  0
   -2.2168   -1.6816   -2.4639 H   0  0  0  0  0  0  0  0  0  0  0  0
   -1.3622    2.2698   -2.5190 H   0  0  0  0  0  0  0  0  0  0  0  0
   -1.7450    2.0641   -4.2241 H   0  0  0  0  0  0  0  0  0  0  0  0
   -3.8795   -0.2205   -1.4706 H   0  0  0  0  0  0  0  0  0  0  0  0
   -2.6643    0.8848   -0.8450 H   0  0  0  0  0  0  0  0  0  0  0  0
    0.1477   -1.3018   -2.3939 H   0  0  0  0  0  0  0  0  0  0  0  0
    4.1065    0.8410   -1.3346 H   0  0  0  0  0  0  0  0  0  0  0  0
    3.4344    2.3805   -1.9230 H   0  0  0  0  0  0  0  0  0  0  0  0
    4.1549    2.3023   -0.3199 H   0  0  0  0  0  0  0  0  0  0  0  0
    1.6622    2.2835   -0.1660 H   0  0  0  0  0  0  0  0  0  0  0  0
    2.3308    0.7394    0.4230 H   0  0  0  0  0  0  0  0  0  0  0  0
   -3.6426    1.6939   -2.8505 H   0  0  0  0  0  0  0  0  0  0  0  0
  1  6  1  0  0  0  0
  1 10  2  0  0  0  0
  1 11  1  0  0  0  0
  2  4  1  0  0  0  0
  2  6  1  0  0  0  0
  3  5  1  0  0  0  0
  3  6  1  0  0  0  0
  4  9  1  0  0  0  0
  5  9  1  0  0  0  0
  7  8  1  0  0  0  0
  8 11  1  0  0  0  0
  2 12  1  0  0  0  0
  2 13  1  0  0  0  0
  3 14  1  0  0  0  0
  3 15  1  0  0  0  0
  4 16  1  0  0  0  0
  4 17  1  0  0  0  0
  5 18  1  0  0  0  0
  5 19  1  0  0  0  0
  6 20  1  0  0  0  0
  7 21  1  0  0  0  0
  7 22  1  0  0  0  0
  7 23  1  0  0  0  0
  8 24  1  0  0  0  0
  8 25  1  0  0  0  0
  9 26  1  0  0  0  0
M  END
$$$$
frag.vs.002
  -OEChem-01121112253D

 25 25  0     0  0  0  0  0  0999 V2000
    1.8851   -1.0363   -0.1124 C   0  0  0  0  0  0  0  0  0  0  0  0
    0.8066   -0.4630    0.5610 C   0  0  0  0  0  0  0  0  0  0  0  0
    2.9210   -1.6309    0.6081 C   0  0  0  0  0  0  0  0  0  0  0  0
    1.7997   -1.0786    2.6757 C   0  0  0  0  0  0  0  0  0  0  0  0
    0.7638   -0.4841    1.9551 C   0  0  0  0  0  0  0  0  0  0  0  0
    2.8783   -1.6520    2.0022 C   0  0  0  0  0  0  0  0  0  0  0  0
   -0.1854    1.5951    3.0056 C   0  0  0  0  0  0  0  0  0  0  0  0
    4.9603   -2.8004    1.9533 C   0  0  0  0  0  0  0  0  0  0  0  0
   -1.2101    3.4334    4.0880 C   0  0  0  0  0  0  0  0  0  0  0  0
   -0.3892    0.1293    2.6750 C   0  0  0  0  0  0  0  0  0  0  0  0
    0.7954    2.2544    2.6885 O   0  0  0  0  0  0  0  0  0  0  0  0
    3.8889   -2.2327    2.7053 O   0  0  0  0  0  0  0  0  0  0  0  0
   -1.2646    2.0549    3.7068 O   0  0  0  0  0  0  0  0  0  0  0  0
    1.9181   -1.0203   -1.1978 H   0  0  0  0  0  0  0  0  0  0  0  0
    0.0044   -0.0017   -0.0089 H   0  0  0  0  0  0  0  0  0  0  0  0
    3.7583   -2.0757    0.0777 H   0  0  0  0  0  0  0  0  0  0  0  0
    1.7692   -1.0964    3.7626 H   0  0  0  0  0  0  0  0  0  0  0  0
    5.6979   -3.2297    2.6357 H   0  0  0  0  0  0  0  0  0  0  0  0
    5.4249   -2.0260    1.3377 H   0  0  0  0  0  0  0  0  0  0  0  0
    4.5634   -3.5872    1.3074 H   0  0  0  0  0  0  0  0  0  0  0  0
   -2.1160    3.6958    4.6398 H   0  0  0  0  0  0  0  0  0  0  0  0
   -1.1218    4.0563    3.1943 H   0  0  0  0  0  0  0  0  0  0  0  0
   -0.3382    3.5913    4.7272 H   0  0  0  0  0  0  0  0  0  0  0  0
   -1.3053    0.0428    2.0689 H   0  0  0  0  0  0  0  0  0  0  0  0
   -0.5774   -0.4080    3.6182 H   0  0  0  0  0  0  0  0  0  0  0  0
  1  2  1  0  0  0  0
  1  3  2  0  0  0  0
  2  5  2  0  0  0  0
  3  6  1  0  0  0  0
  4  5  1  0  0  0  0
  4  6  2  0  0  0  0
  5 10  1  0  0  0  0
  6 12  1  0  0  0  0
  7 10  1  0  0  0  0
  7 11  2  0  0  0  0
  7 13  1  0  0  0  0
  8 12  1  0  0  0  0
  9 13  1  0  0  0  0
  1 14  1  0  0  0  0
  2 15  1  0  0  0  0
  3 16  1  0  0  0  0
  4 17  1  0  0  0  0
  8 18  1  0  0  0  0
  8 19  1  0  0  0  0
  8 20  1  0  0  0  0
  9 21  1  0  0  0  0
  9 22  1  0  0  0  0
  9 23  1  0  0  0  0
 10 24  1  0  0  0  0
 10 25  1  0  0  0  0
M  END
$$$$
frag.vs.003
  -OEChem-01121112253D

 21 21  0     0  0  0  0  0  0999 V2000
    1.8851   -1.0363   -0.1124 C   0  0  0  0  0  0  0  0  0  0  0  0
    0.8066   -0.4630    0.5610 C   0  0  0  0  0  0  0  0  0  0  0  0
    2.9210   -1.6309    0.6081 C   0  0  0  0  0  0  0  0  0  0  0  0
    0.7638   -0.4841    1.9551 C   0  0  0  0  0  0  0  0  0  0  0  0
    2.8783   -1.6520    2.0022 C   0  0  0  0  0  0  0  0  0  0  0  0
    1.7997   -1.0786    2.6757 C   0  0  0  0  0  0  0  0  0  0  0  0
    3.9735   -2.2786    2.7300 C   0  0  0  0  0  0  0  0  0  0  0  0
    1.7287   -1.0866    4.1677 C   0  0  0  0  0  0  0  0  0  0  0  0
    6.3245   -2.1986    3.1166 C   0  0  0  0  0  0  0  0  0  0  0  0
    3.8422   -3.2409    3.4959 O   0  0  0  0  0  0  0  0  0  0  0  0
    5.1677   -1.6700    2.4593 O   0  0  0  0  0  0  0  0  0  0  0  0
    1.9188   -1.0203   -1.1981 H   0  0  0  0  0  0  0  0  0  0  0  0
    0.0004    0.0000   -0.0006 H   0  0  0  0  0  0  0  0  0  0  0  0
    3.7565   -2.0732    0.0716 H   0  0  0  0  0  0  0  0  0  0  0  0
   -0.0813   -0.0350    2.4700 H   0  0  0  0  0  0  0  0  0  0  0  0
    1.2140   -1.9886    4.5184 H   0  0  0  0  0  0  0  0  0  0  0  0
    2.7312   -1.0608    4.6121 H   0  0  0  0  0  0  0  0  0  0  0  0
    1.1900   -0.2079    4.5433 H   0  0  0  0  0  0  0  0  0  0  0  0
    7.2071   -1.6280    2.8172 H   0  0  0  0  0  0  0  0  0  0  0  0
    6.4489   -3.2505    2.8472 H   0  0  0  0  0  0  0  0  0  0  0  0
    6.1887   -2.1149    4.1974 H   0  0  0  0  0  0  0  0  0  0  0  0
  1  2  1  0  0  0  0
  1  3  2  0  0  0  0
  2  4  2  0  0  0  0
  3  5  1  0  0  0  0
  4  6  1  0  0  0  0
  5  6  2  0  0  0  0
  5  7  1  0  0  0  0
  6  8  1  0  0  0  0
  7 10  2  0  0  0  0
  7 11  1  0  0  0  0
  9 11  1  0  0  0  0
  1 12  1  0  0  0  0
  2 13  1  0  0  0  0
  3 14  1  0  0  0  0
  4 15  1  0  0  0  0
  8 16  1  0  0  0  0
  8 17  1  0  0  0  0
  8 18  1  0  0  0  0
  9 19  1  0  0  0  0
  9 20  1  0  0  0  0
  9 21  1  0  0  0  0
M  END
$$$$
frag.vs.004
  -OEChem-01121112253D

 30 31  0     0  0  0  0  0  0999 V2000
    3.4087   -2.0621    1.5501 C   0  0  0  0  0  0  0  0  0  0  0  0
    2.2387   -2.0721    0.7908 C   0  0  0  0  0  0  0  0  0  0  0  0
    2.0938   -1.9766    3.5752 C   0  0  0  0  0  0  0  0  0  0  0  0
    3.3363   -2.0144    2.9423 C   0  0  0  0  0  0  0  0  0  0  0  0
    0.9962   -2.0343    1.4237 C   0  0  0  0  0  0  0  0  0  0  0  0
    0.9238   -1.9866    2.8159 C   0  0  0  0  0  0  0  0  0  0  0  0
   -0.7560   -3.3472    0.3005 C   0  0  0  0  0  0  0  0  0  0  0  0
   -0.4010   -0.9765   -0.3323 C   0  0  0  0  0  0  0  0  0  0  0  0
   -2.2197   -3.1618   -0.0830 C   0  0  0  0  0  0  0  0  0  0  0  0
   -1.8838   -0.9178   -0.6826 C   0  0  0  0  0  0  0  0  0  0  0  0
    4.5873   -2.0041    3.7541 C   0  0  0  0  0  0  0  0  0  0  0  0
   -0.1641   -2.0466    0.6428 N   0  0  0  0  0  0  0  0  0  0  0  0
   -0.3242   -1.9490    3.4769 N   0  0  0  0  0  0  0  0  0  0  0  0
   -2.3440   -2.1943   -1.1251 O   0  0  0  0  0  0  0  0  0  0  0  0
    5.7276   -2.0447    3.0032 F   0  0  0  0  0  0  0  0  0  0  0  0
    4.7190   -0.8959    4.5416 F   0  0  0  0  0  0  0  0  0  0  0  0
    4.6707   -3.0690    4.6039 F   0  0  0  0  0  0  0  0  0  0  0  0
    4.3721   -2.0924    1.0484 H   0  0  0  0  0  0  0  0  0  0  0  0
    2.3076   -2.1089   -0.2934 H   0  0  0  0  0  0  0  0  0  0  0  0
    2.0408   -1.9395    4.6612 H   0  0  0  0  0  0  0  0  0  0  0  0
   -0.6849   -4.0411    1.1463 H   0  0  0  0  0  0  0  0  0  0  0  0
   -0.2069   -3.7786   -0.5463 H   0  0  0  0  0  0  0  0  0  0  0  0
    0.1815   -1.1817   -1.2397 H   0  0  0  0  0  0  0  0  0  0  0  0
   -0.0824   -0.0072    0.0689 H   0  0  0  0  0  0  0  0  0  0  0  0
   -2.6312   -4.1073   -0.4503 H   0  0  0  0  0  0  0  0  0  0  0  0
   -2.8233   -2.8505    0.7782 H   0  0  0  0  0  0  0  0  0  0  0  0
   -2.4836   -0.5929    0.1762 H   0  0  0  0  0  0  0  0  0  0  0  0
   -2.0487   -0.2000   -1.4923 H   0  0  0  0  0  0  0  0  0  0  0  0
   -0.3455   -1.9637    4.4754 H   0  0  0  0  0  0  0  0  0  0  0  0
   -1.1619   -2.0037    2.9356 H   0  0  0  0  0  0  0  0  0  0  0  0
  1  2  1  0  0  0  0
  1  4  2  0  0  0  0
  2  5  2  0  0  0  0
  3  4  1  0  0  0  0
  3  6  2  0  0  0  0
  4 11  1  0  0  0  0
  5  6  1  0  0  0  0
  5 12  1  0  0  0  0
  6 13  1  0  0  0  0
  7  9  1  0  0  0  0
  7 12  1  0  0  0  0
  8 10  1  0  0  0  0
  8 12  1  0  0  0  0
  9 14  1  0  0  0  0
 10 14  1  0  0  0  0
 11 15  1  0  0  0  0
 11 16  1  0  0  0  0
 11 17  1  0  0  0  0
  1 18  1  0  0  0  0
  2 19  1  0  0  0  0
  3 20  1  0  0  0  0
  7 21  1  0  0  0  0
  7 22  1  0  0  0  0
  8 23  1  0  0  0  0
  8 24  1  0  0  0  0
  9 25  1  0  0  0  0
  9 26  1  0  0  0  0
 10 27  1  0  0  0  0
 10 28  1  0  0  0  0
 13 29  1  0  0  0  0
 13 30  1  0  0  0  0
M  END
$$$$
frag.vs.005
  -OEChem-01121112253D

 26 27  0     0  0  0  0  0  0999 V2000
    3.4717   -4.9819    4.1039 C   0  0  0  0  0  0  0  0  0  0  0  0
    4.0675   -3.9511    3.3772 C   0  0  0  0  0  0  0  0  0  0  0  0
    2.3117   -4.7371    4.8388 C   0  0  0  0  0  0  0  0  0  0  0  0
   -1.8931   -0.6173    5.0116 C   0  0  0  0  0  0  0  0  0  0  0  0
    3.5033   -2.6754    3.3855 C   0  0  0  0  0  0  0  0  0  0  0  0
    1.7475   -3.4614    4.8471 C   0  0  0  0  0  0  0  0  0  0  0  0
   -0.7353   -0.9183    4.2944 C   0  0  0  0  0  0  0  0  0  0  0  0
   -1.8009   -0.1760    6.3317 C   0  0  0  0  0  0  0  0  0  0  0  0
    0.6069   -0.3372    6.2174 C   0  0  0  0  0  0  0  0  0  0  0  0
    2.3433   -2.4306    4.1204 C   0  0  0  0  0  0  0  0  0  0  0  0
    0.5147   -0.7783    4.8973 C   0  0  0  0  0  0  0  0  0  0  0  0
   -0.5509   -0.0360    6.9346 C   0  0  0  0  0  0  0  0  0  0  0  0
    1.7551   -1.1006    4.1291 C   0  0  0  0  0  0  0  0  0  0  0  0
   -0.4579    0.4100    8.2692 N   0  0  0  0  0  0  0  0  0  0  0  0
    2.2806   -0.1805    3.4849 O   0  0  0  0  0  0  0  0  0  0  0  0
    3.9111   -5.9750    4.0974 H   0  0  0  0  0  0  0  0  0  0  0  0
    4.9708   -4.1418    2.8052 H   0  0  0  0  0  0  0  0  0  0  0  0
    1.8476   -5.5398    5.4044 H   0  0  0  0  0  0  0  0  0  0  0  0
   -2.8662   -0.7255    4.5419 H   0  0  0  0  0  0  0  0  0  0  0  0
    3.9758   -1.8794    2.8156 H   0  0  0  0  0  0  0  0  0  0  0  0
    0.8435   -3.2822    5.4235 H   0  0  0  0  0  0  0  0  0  0  0  0
   -0.8192   -1.2609    3.2663 H   0  0  0  0  0  0  0  0  0  0  0  0
   -2.7097    0.0559    6.8810 H   0  0  0  0  0  0  0  0  0  0  0  0
    1.5821   -0.2279    6.6878 H   0  0  0  0  0  0  0  0  0  0  0  0
   -1.2921    0.6675    8.7569 H   0  0  0  0  0  0  0  0  0  0  0  0
    0.4454    0.5512    8.6745 H   0  0  0  0  0  0  0  0  0  0  0  0
  1  2  1  0  0  0  0
  1  3  2  0  0  0  0
  2  5  2  0  0  0  0
  3  6  1  0  0  0  0
  4  7  2  0  0  0  0
  4  8  1  0  0  0  0
  5 10  1  0  0  0  0
  6 10  2  0  0  0  0
  7 11  1  0  0  0  0
  8 12  2  0  0  0  0
  9 11  2  0  0  0  0
  9 12  1  0  0  0  0
 10 13  1  0  0  0  0
 11 13  1  0  0  0  0
 12 14  1  0  0  0  0
 13 15  2  0  0  0  0
  1 16  1  0  0  0  0
  2 17  1  0  0  0  0
  3 18  1  0  0  0  0
  4 19  1  0  0  0  0
  5 20  1  0  0  0  0
  6 21  1  0  0  0  0
  7 22  1  0  0  0  0
  8 23  1  0  0  0  0
  9 24  1  0  0  0  0
 14 25  1  0  0  0  0
 14 26  1  0  0  0  0
M  END
$$$$
frag.vs.006
  -OEChem-01121112253D

 20 20  0     0  0  0  0  0  0999 V2000
    1.8851   -1.0363   -0.1124 C   0  0  0  0  0  0  0  0  0  0  0  0
    0.8066   -0.4630    0.5610 C   0  0  0  0  0  0  0  0  0  0  0  0
    2.9210   -1.6309    0.6081 C   0  0  0  0  0  0  0  0  0  0  0  0
    1.7997   -1.0786    2.6757 C   0  0  0  0  0  0  0  0  0  0  0  0
    0.7638   -0.4841    1.9551 C   0  0  0  0  0  0  0  0  0  0  0  0
    2.8783   -1.6520    2.0022 C   0  0  0  0  0  0  0  0  0  0  0  0
   -0.3608    0.1133    2.6574 C   0  0  0  0  0  0  0  0  0  0  0  0
   -2.4285    1.2658    2.3598 C   0  0  0  0  0  0  0  0  0  0  0  0
    3.9257   -2.2531    2.7305 N   0  0  0  0  0  0  0  0  0  0  0  0
   -0.4824    0.1409    3.8893 O   0  0  0  0  0  0  0  0  0  0  0  0
   -1.2725    0.6453    1.7868 O   0  0  0  0  0  0  0  0  0  0  0  0
    1.9179   -1.0205   -1.1978 H   0  0  0  0  0  0  0  0  0  0  0  0
    0.0049   -0.0029   -0.0109 H   0  0  0  0  0  0  0  0  0  0  0  0
    3.7564   -2.0747    0.0729 H   0  0  0  0  0  0  0  0  0  0  0  0
    1.7664   -1.0952    3.7633 H   0  0  0  0  0  0  0  0  0  0  0  0
   -3.0713    1.6468    1.5624 H   0  0  0  0  0  0  0  0  0  0  0  0
   -2.1174    2.0842    3.0139 H   0  0  0  0  0  0  0  0  0  0  0  0
   -2.9776    0.5236    2.9440 H   0  0  0  0  0  0  0  0  0  0  0  0
    4.6695   -2.7019    2.2353 H   0  0  0  0  0  0  0  0  0  0  0  0
    3.8604   -2.3034    3.7272 H   0  0  0  0  0  0  0  0  0  0  0  0
  1  2  2  0  0  0  0
  1  3  1  0  0  0  0
  2  5  1  0  0  0  0
  3  6  2  0  0  0  0
  4  5  2  0  0  0  0
  4  6  1  0  0  0  0
  5  7  1  0  0  0  0
  6  9  1  0  0  0  0
  7 10  2  0  0  0  0
  7 11  1  0  0  0  0
  8 11  1  0  0  0  0
  1 12  1  0  0  0  0
  2 13  1  0  0  0  0
  3 14  1  0  0  0  0
  4 15  1  0  0  0  0
  8 16  1  0  0  0  0
  8 17  1  0  0  0  0
  8 18  1  0  0  0  0
  9 19  1  0  0  0  0
  9 20  1  0  0  0  0
M  END
$$$$
frag.vs.007
  -OEChem-01121112253D

 20 21  0     0  0  0  0  0  0999 V2000
   -4.0902    4.2376   -1.4936 C   0  0  0  0  0  0  0  0  0  0  0  0
   -2.7151    4.3237   -1.3301 C   0  0  0  0  0  0  0  0  0  0  0  0
   -0.5469    0.8976   -0.2738 C   0  0  0  0  0  0  0  0  0  0  0  0
   -1.9323    0.8440   -0.4461 C   0  0  0  0  0  0  0  0  0  0  0  0
   -0.5812    3.2417   -0.8037 C   0  0  0  0  0  0  0  0  0  0  0  0
   -4.6804    3.0058   -1.2959 C   0  0  0  0  0  0  0  0  0  0  0  0
   -1.9747    3.1875   -0.9770 C   0  0  0  0  0  0  0  0  0  0  0  0
    0.1298    2.0977   -0.4527 C   0  0  0  0  0  0  0  0  0  0  0  0
   -2.6683    1.9725   -0.7968 C   0  0  0  0  0  0  0  0  0  0  0  0
    1.5714    2.1585   -0.2742 C   0  0  0  0  0  0  0  0  0  0  0  0
   -4.0027    1.8858   -0.9548 N   0  0  0  0  0  0  0  0  0  0  0  0
    2.2680    3.1702   -0.4082 O   0  0  0  0  0  0  0  0  0  0  0  0
    2.1051    0.9538    0.0685 O   0  0  0  0  0  0  0  0  0  0  0  0
   -4.6778    5.1062   -1.7663 H   0  0  0  0  0  0  0  0  0  0  0  0
   -2.2237    5.2822   -1.4810 H   0  0  0  0  0  0  0  0  0  0  0  0
   -0.0098   -0.0075   -0.0011 H   0  0  0  0  0  0  0  0  0  0  0  0
   -2.4388   -0.1083   -0.3003 H   0  0  0  0  0  0  0  0  0  0  0  0
   -0.0516    4.1825   -0.9441 H   0  0  0  0  0  0  0  0  0  0  0  0
   -5.7521    2.8778   -1.4085 H   0  0  0  0  0  0  0  0  0  0  0  0
    3.0778    0.9844    0.1923 H   0  0  0  0  0  0  0  0  0  0  0  0
  1  2  1  0  0  0  0
  1  6  2  0  0  0  0
  2  7  2  0  0  0  0
  3  4  2  0  0  0  0
  3  8  1  0  0  0  0
  4  9  1  0  0  0  0
  5  7  1  0  0  0  0
  5  8  2  0  0  0  0
  6 11  1  0  0  0  0
  7  9  1  0  0  0  0
  8 10  1  0  0  0  0
  9 11  2  0  0  0  0
 10 12  2  0  0  0  0
 10 13  1  0  0  0  0
  1 14  1  0  0  0  0
  2 15  1  0  0  0  0
  3 16  1  0  0  0  0
  4 17  1  0  0  0  0
  5 18  1  0  0  0  0
  6 19  1  0  0  0  0
 13 20  1  0  0  0  0
M  END
$$$$
frag.vs.008
  -OEChem-01121112253D

 23 24  0     0  0  0  0  0  0999 V2000
   -4.0902    4.2376   -1.4936 C   0  0  0  0  0  0  0  0  0  0  0  0
   -2.7151    4.3237   -1.3301 C   0  0  0  0  0  0  0  0  0  0  0  0
   -0.5469    0.8976   -0.2738 C   0  0  0  0  0  0  0  0  0  0  0  0
   -1.9323    0.8440   -0.4461 C   0  0  0  0  0  0  0  0  0  0  0  0
   -0.5812    3.2417   -0.8037 C   0  0  0  0  0  0  0  0  0  0  0  0
   -4.6804    3.0058   -1.2959 C   0  0  0  0  0  0  0  0  0  0  0  0
   -1.9747    3.1875   -0.9770 C   0  0  0  0  0  0  0  0  0  0  0  0
    0.1298    2.0977   -0.4527 C   0  0  0  0  0  0  0  0  0  0  0  0
   -2.6683    1.9725   -0.7968 C   0  0  0  0  0  0  0  0  0  0  0  0
    1.5714    2.1585   -0.2742 C   0  0  0  0  0  0  0  0  0  0  0  0
    3.5033    0.8700    0.2751 C   0  0  0  0  0  0  0  0  0  0  0  0
   -4.0027    1.8858   -0.9548 N   0  0  0  0  0  0  0  0  0  0  0  0
    2.2521    3.1837   -0.4133 O   0  0  0  0  0  0  0  0  0  0  0  0
    2.0881    0.9389    0.0695 O   0  0  0  0  0  0  0  0  0  0  0  0
   -4.6778    5.1062   -1.7663 H   0  0  0  0  0  0  0  0  0  0  0  0
   -2.2237    5.2822   -1.4810 H   0  0  0  0  0  0  0  0  0  0  0  0
   -0.0098   -0.0075   -0.0011 H   0  0  0  0  0  0  0  0  0  0  0  0
   -2.4388   -0.1083   -0.3003 H   0  0  0  0  0  0  0  0  0  0  0  0
   -0.0516    4.1825   -0.9441 H   0  0  0  0  0  0  0  0  0  0  0  0
   -5.7521    2.8778   -1.4085 H   0  0  0  0  0  0  0  0  0  0  0  0
    3.7841   -0.1516    0.5426 H   0  0  0  0  0  0  0  0  0  0  0  0
    3.7903    1.5591    1.0734 H   0  0  0  0  0  0  0  0  0  0  0  0
    4.0111    1.1548   -0.6494 H   0  0  0  0  0  0  0  0  0  0  0  0
  1  2  1  0  0  0  0
  1  6  2  0  0  0  0
  2  7  2  0  0  0  0
  3  4  2  0  0  0  0
  3  8  1  0  0  0  0
  4  9  1  0  0  0  0
  5  7  1  0  0  0  0
  5  8  2  0  0  0  0
  6 12  1  0  0  0  0
  7  9  1  0  0  0  0
  8 10  1  0  0  0  0
  9 12  2  0  0  0  0
 10 13  2  0  0  0  0
 10 14  1  0  0  0  0
 11 14  1  0  0  0  0
  1 15  1  0  0  0  0
  2 16  1  0  0  0  0
  3 17  1  0  0  0  0
  4 18  1  0  0  0  0
  5 19  1  0  0  0  0
  6 20  1  0  0  0  0
 11 21  1  0  0  0  0
 11 22  1  0  0  0  0
 11 23  1  0  0  0  0
M  END
$$$$
frag.vs.009
  -OEChem-01121112253D

 20 21  0     0  0  0  0  0  0999 V2000
   -0.4431    0.8856    0.4473 C   0  0  0  0  0  0  0  0  0  0  0  0
   -1.8068    0.9040    0.7456 C   0  0  0  0  0  0  0  0  0  0  0  0
   -0.1807    3.1490    1.3062 C   0  0  0  0  0  0  0  0  0  0  0  0
    0.3647    2.0013    0.7245 C   0  0  0  0  0  0  0  0  0  0  0  0
   -1.5345    3.1578    1.5867 C   0  0  0  0  0  0  0  0  0  0  0  0
   -2.3262    2.0536    1.3083 C   0  0  0  0  0  0  0  0  0  0  0  0
    1.7844    1.9571    0.4107 C   0  0  0  0  0  0  0  0  0  0  0  0
   -2.3549    4.1954    2.2482 C   0  0  0  0  0  0  0  0  0  0  0  0
   -3.7446    3.6404    1.9321 C   0  0  0  0  0  0  0  0  0  0  0  0
    2.3760    0.9983   -0.0956 O   0  0  0  0  0  0  0  0  0  0  0  0
   -3.6401    2.2216    1.6648 O   0  0  0  0  0  0  0  0  0  0  0  0
    2.4255    3.1127    0.7372 O   0  0  0  0  0  0  0  0  0  0  0  0
   -0.0114   -0.0060   -0.0013 H   0  0  0  0  0  0  0  0  0  0  0  0
   -2.4325    0.0433    0.5384 H   0  0  0  0  0  0  0  0  0  0  0  0
    0.4381    4.0099    1.5389 H   0  0  0  0  0  0  0  0  0  0  0  0
   -2.1665    4.1970    3.3265 H   0  0  0  0  0  0  0  0  0  0  0  0
   -2.2145    5.1995    1.8402 H   0  0  0  0  0  0  0  0  0  0  0  0
   -4.4413    3.8023    2.7612 H   0  0  0  0  0  0  0  0  0  0  0  0
   -4.1660    4.1176    1.0379 H   0  0  0  0  0  0  0  0  0  0  0  0
    3.3838    3.0933    0.5285 H   0  0  0  0  0  0  0  0  0  0  0  0
  1  2  1  0  0  0  0
  1  4  2  0  0  0  0
  2  6  2  0  0  0  0
  3  4  1  0  0  0  0
  3  5  2  0  0  0  0
  4  7  1  0  0  0  0
  5  6  1  0  0  0  0
  5  8  1  0  0  0  0
  6 11  1  0  0  0  0
  7 10  2  0  0  0  0
  7 12  1  0  0  0  0
  8  9  1  0  0  0  0
  9 11  1  0  0  0  0
  1 13  1  0  0  0  0
  2 14  1  0  0  0  0
  3 15  1  0  0  0  0
  8 16  1  0  0  0  0
  8 17  1  0  0  0  0
  9 18  1  0  0  0  0
  9 19  1  0  0  0  0
 12 20  1  0  0  0  0
M  END
$$$$
frag.vs.010
  -OEChem-01121112253D

 24 25  0     0  0  0  0  0  0999 V2000
    2.0839    0.3075    0.4417 C   0  0  0  0  0  0  0  0  0  0  0  0
    3.0153    1.0844    1.1301 C   0  0  0  0  0  0  0  0  0  0  0  0
    0.2981    1.6540    1.3470 C   0  0  0  0  0  0  0  0  0  0  0  0
    0.7261    0.5990    0.5416 C   0  0  0  0  0  0  0  0  0  0  0  0
    2.5950    2.1611    1.9193 C   0  0  0  0  0  0  0  0  0  0  0  0
    1.2251    2.4215    2.0616 C   0  0  0  0  0  0  0  0  0  0  0  0
   -0.2456   -0.2033   -0.1841 C   0  0  0  0  0  0  0  0  0  0  0  0
    2.5420    4.5921    3.8663 C   0  0  0  0  0  0  0  0  0  0  0  0
    3.3427    4.2762    2.6124 C   0  0  0  0  0  0  0  0  0  0  0  0
    1.3885    3.6225    4.0726 C   0  0  0  0  0  0  0  0  0  0  0  0
   -1.4693   -0.0340   -0.1677 O   0  0  0  0  0  0  0  0  0  0  0  0
    3.6061    2.8770    2.5092 O   0  0  0  0  0  0  0  0  0  0  0  0
    0.6795    3.4000    2.8537 O   0  0  0  0  0  0  0  0  0  0  0  0
    0.3376   -1.1950   -0.9119 O   0  0  0  0  0  0  0  0  0  0  0  0
    2.4305   -0.5163   -0.1770 H   0  0  0  0  0  0  0  0  0  0  0  0
    4.0741    0.8584    1.0303 H   0  0  0  0  0  0  0  0  0  0  0  0
   -0.7647    1.8690    1.4393 H   0  0  0  0  0  0  0  0  0  0  0  0
    3.1904    4.5528    4.7492 H   0  0  0  0  0  0  0  0  0  0  0  0
    2.1647    5.6181    3.7879 H   0  0  0  0  0  0  0  0  0  0  0  0
    2.8478    4.6535    1.7069 H   0  0  0  0  0  0  0  0  0  0  0  0
    4.3095    4.7894    2.6646 H   0  0  0  0  0  0  0  0  0  0  0  0
    1.7267    2.6743    4.5122 H   0  0  0  0  0  0  0  0  0  0  0  0
    0.6810    4.0532    4.7900 H   0  0  0  0  0  0  0  0  0  0  0  0
   -0.3098   -1.7417   -1.4061 H   0  0  0  0  0  0  0  0  0  0  0  0
  1  2  1  0  0  0  0
  1  4  2  0  0  0  0
  2  5  2  0  0  0  0
  3  4  1  0  0  0  0
  3  6  2  0  0  0  0
  4  7  1  0  0  0  0
  5  6  1  0  0  0  0
  5 12  1  0  0  0  0
  6 13  1  0  0  0  0
  7 11  2  0  0  0  0
  7 14  1  0  0  0  0
  8  9  1  0  0  0  0
  8 10  1  0  0  0  0
  9 12  1  0  0  0  0
 10 13  1  0  0  0  0
  1 15  1  0  0  0  0
  2 16  1  0  0  0  0
  3 17  1  0  0  0  0
  8 18  1  0  0  0  0
  8 19  1  0  0  0  0
  9 20  1  0  0  0  0
  9 21  1  0  0  0  0
 10 22  1  0  0  0  0
 10 23  1  0  0  0  0
 14 24  1  0  0  0  0
M  END
$$$$
frag.vs.011
  -OEChem-01121112253D

 21 22  0     0  0  0  0  0  0999 V2000
    0.2979   -1.1769    1.7792 C   0  0  0  0  0  0  0  0  0  0  0  0
    0.5196   -2.4525    2.2989 C   0  0  0  0  0  0  0  0  0  0  0  0
    0.2866   -2.0843   -0.4619 C   0  0  0  0  0  0  0  0  0  0  0  0
    0.1764   -0.9939    0.4014 C   0  0  0  0  0  0  0  0  0  0  0  0
    0.6167   -3.5455    1.4372 C   0  0  0  0  0  0  0  0  0  0  0  0
    0.5219   -3.3582    0.0560 C   0  0  0  0  0  0  0  0  0  0  0  0
   -0.0595    0.3364   -0.1369 C   0  0  0  0  0  0  0  0  0  0  0  0
    0.5543   -5.8390    1.0877 C   0  0  0  0  0  0  0  0  0  0  0  0
    1.2151   -5.5522   -0.2464 C   0  0  0  0  0  0  0  0  0  0  0  0
   -0.1827    0.6127   -1.3347 O   0  0  0  0  0  0  0  0  0  0  0  0
    0.8145   -4.7756    2.0082 O   0  0  0  0  0  0  0  0  0  0  0  0
    0.6415   -4.3858   -0.8429 O   0  0  0  0  0  0  0  0  0  0  0  0
   -0.1365    1.2855    0.8360 O   0  0  0  0  0  0  0  0  0  0  0  0
    0.2173   -0.3320    2.4586 H   0  0  0  0  0  0  0  0  0  0  0  0
    0.6048   -2.5880    3.3736 H   0  0  0  0  0  0  0  0  0  0  0  0
    0.2017   -1.9430   -1.5369 H   0  0  0  0  0  0  0  0  0  0  0  0
   -0.5317   -5.9550    0.9840 H   0  0  0  0  0  0  0  0  0  0  0  0
    0.9569   -6.7599    1.5211 H   0  0  0  0  0  0  0  0  0  0  0  0
    2.2953   -5.3949   -0.1366 H   0  0  0  0  0  0  0  0  0  0  0  0
    1.0605   -6.3887   -0.9351 H   0  0  0  0  0  0  0  0  0  0  0  0
   -0.2964    2.1867    0.4830 H   0  0  0  0  0  0  0  0  0  0  0  0
  1  2  1  0  0  0  0
  1  4  2  0  0  0  0
  2  5  2  0  0  0  0
  3  4  1  0  0  0  0
  3  6  2  0  0  0  0
  4  7  1  0  0  0  0
  5  6  1  0  0  0  0
  5 11  1  0  0  0  0
  6 12  1  0  0  0  0
  7 10  2  0  0  0  0
  7 13  1  0  0  0  0
  8  9  1  0  0  0  0
  8 11  1  0  0  0  0
  9 12  1  0  0  0  0
  1 14  1  0  0  0  0
  2 15  1  0  0  0  0
  3 16  1  0  0  0  0
  8 17  1  0  0  0  0
  8 18  1  0  0  0  0
  9 19  1  0  0  0  0
  9 20  1  0  0  0  0
 13 21  1  0  0  0  0
M  END
$$$$
frag.vs.012
  -OEChem-01121112253D

 18 19  0     0  0  0  0  0  0999 V2000
    0.8726    1.2794    1.5062 C   0  0  0  0  0  0  0  0  0  0  0  0
    0.7042    1.9049    2.7438 C   0  0  0  0  0  0  0  0  0  0  0  0
   -1.3491    0.2943    1.6535 C   0  0  0  0  0  0  0  0  0  0  0  0
   -0.1481    0.4787    0.9641 C   0  0  0  0  0  0  0  0  0  0  0  0
   -0.4910    1.7067    3.4041 C   0  0  0  0  0  0  0  0  0  0  0  0
   -1.4901    0.9230    2.8735 C   0  0  0  0  0  0  0  0  0  0  0  0
    0.0481   -0.1631   -0.3262 C   0  0  0  0  0  0  0  0  0  0  0  0
   -2.1588    1.6916    4.7825 C   0  0  0  0  0  0  0  0  0  0  0  0
    1.0636   -0.0725   -1.0239 O   0  0  0  0  0  0  0  0  0  0  0  0
   -0.8328    2.2326    4.6117 O   0  0  0  0  0  0  0  0  0  0  0  0
   -2.5825    0.8600    3.6827 O   0  0  0  0  0  0  0  0  0  0  0  0
   -1.0292   -0.9019   -0.7092 O   0  0  0  0  0  0  0  0  0  0  0  0
    1.8058    1.4189    0.9652 H   0  0  0  0  0  0  0  0  0  0  0  0
    1.4884    2.5237    3.1645 H   0  0  0  0  0  0  0  0  0  0  0  0
   -2.1461   -0.3204    1.2483 H   0  0  0  0  0  0  0  0  0  0  0  0
   -2.1787    1.0948    5.7016 H   0  0  0  0  0  0  0  0  0  0  0  0
   -2.8661    2.5224    4.8869 H   0  0  0  0  0  0  0  0  0  0  0  0
   -0.9063   -1.3398   -1.5784 H   0  0  0  0  0  0  0  0  0  0  0  0
  1  2  1  0  0  0  0
  1  4  2  0  0  0  0
  2  5  2  0  0  0  0
  3  4  1  0  0  0  0
  3  6  2  0  0  0  0
  4  7  1  0  0  0  0
  5  6  1  0  0  0  0
  5 10  1  0  0  0  0
  6 11  1  0  0  0  0
  7  9  2  0  0  0  0
  7 12  1  0  0  0  0
  8 10  1  0  0  0  0
  8 11  1  0  0  0  0
  1 13  1  0  0  0  0
  2 14  1  0  0  0  0
  3 15  1  0  0  0  0
  8 16  1  0  0  0  0
  8 17  1  0  0  0  0
 12 18  1  0  0  0  0
M  END
$$$$
frag.vs.013_0
  -OEChem-01121112253D

 26 27  0     1  0  0  0  0  0999 V2000
   -1.9556    1.7853   -1.2499 C   0  0  0  0  0  0  0  0  0  0  0  0
   -1.0675   -1.1734    0.9756 C   0  0  0  0  0  0  0  0  0  0  0  0
    0.2722   -0.8070    1.6230 C   0  0  0  0  0  0  0  0  0  0  0  0
    0.3807    1.3256   -0.4975 C   0  0  0  0  0  0  0  0  0  0  0  0
   -0.1521   -0.8479   -1.3267 C   0  0  0  0  0  0  0  0  0  0  0  0
   -1.1149    1.0620   -0.2404 C   0  0  2  0  0  0  0  0  0  0  0  0
   -1.2880   -0.4642   -0.3750 C   0  0  2  0  0  0  0  0  0  0  0  0
    1.0059   -0.0661   -0.7149 C   0  0  2  0  0  0  0  0  0  0  0  0
    1.4191   -0.7441    0.6076 C   0  0  1  0  0  0  0  0  0  0  0  0
   -2.7148    1.2500   -2.0438 O   0  0  0  0  0  0  0  0  0  0  0  0
   -1.7584    3.1238   -1.1663 O   0  0  0  0  0  0  0  0  0  0  0  0
    2.5135   -0.0518    1.1996 O   0  0  0  0  0  0  0  0  0  0  0  0
   -1.1043   -2.2586    0.8186 H   0  0  0  0  0  0  0  0  0  0  0  0
   -1.8827   -0.9271    1.6660 H   0  0  0  0  0  0  0  0  0  0  0  0
    0.1802    0.1588    2.1370 H   0  0  0  0  0  0  0  0  0  0  0  0
    0.5161   -1.5237    2.4166 H   0  0  0  0  0  0  0  0  0  0  0  0
    0.5268    1.9409   -1.3939 H   0  0  0  0  0  0  0  0  0  0  0  0
    0.8436    1.8605    0.3383 H   0  0  0  0  0  0  0  0  0  0  0  0
    0.0298   -1.9270   -1.3631 H   0  0  0  0  0  0  0  0  0  0  0  0
   -0.3594   -0.5044   -2.3471 H   0  0  0  0  0  0  0  0  0  0  0  0
   -1.4210    1.4276    0.7461 H   0  0  0  0  0  0  0  0  0  0  0  0
   -2.2622   -0.7485   -0.7871 H   0  0  0  0  0  0  0  0  0  0  0  0
    1.8674    0.0006   -1.3875 H   0  0  0  0  0  0  0  0  0  0  0  0
    1.7591   -1.7654    0.3959 H   0  0  0  0  0  0  0  0  0  0  0  0
   -2.2989    3.6153   -1.8209 H   0  0  0  0  0  0  0  0  0  0  0  0
    2.7684   -0.5576    1.9872 H   0  0  0  0  0  0  0  0  0  0  0  0
  1  6  1  0  0  0  0
  1 10  2  0  0  0  0
  1 11  1  0  0  0  0
  2  3  1  0  0  0  0
  2  7  1  0  0  0  0
  3  9  1  0  0  0  0
  4  6  1  0  0  0  0
  4  8  1  0  0  0  0
  5  7  1  0  0  0  0
  5  8  1  0  0  0  0
  6  7  1  0  0  0  0
  8  9  1  0  0  0  0
  9 12  1  0  0  0  0
  2 13  1  0  0  0  0
  2 14  1  0  0  0  0
  3 15  1  0  0  0  0
  3 16  1  0  0  0  0
  4 17  1  0  0  0  0
  4 18  1  0  0  0  0
  5 19  1  0  0  0  0
  5 20  1  0  0  0  0
  6 21  1  0  0  0  0
  7 22  1  0  0  0  0
  8 23  1  0  0  0  0
  9 24  1  0  0  0  0
 11 25  1  0  0  0  0
 12 26  1  0  0  0  0
M  END
$$$$
frag.vs.013_1
  -OEChem-01121112253D

 26 27  0     1  0  0  0  0  0999 V2000
   -0.4946    2.3116    1.8176 C   0  0  0  0  0  0  0  0  0  0  0  0
   -1.0998   -1.2399    0.5907 C   0  0  0  0  0  0  0  0  0  0  0  0
    0.2920   -1.8035    0.2683 C   0  0  0  0  0  0  0  0  0  0  0  0
    1.1525    1.0958    0.3897 C   0  0  0  0  0  0  0  0  0  0  0  0
   -0.7911    0.7068   -0.9346 C   0  0  0  0  0  0  0  0  0  0  0  0
   -0.0565    0.9611    1.3354 C   0  0  2  0  0  0  0  0  0  0  0  0
   -1.1619    0.2959    0.4909 C   0  0  2  0  0  0  0  0  0  0  0  0
    0.7115    0.4304   -0.9247 C   0  0  2  0  0  0  0  0  0  0  0  0
    0.9682   -1.0911   -0.9108 C   0  0  2  0  0  0  0  0  0  0  0  0
   -1.5934    2.8066    1.6153 O   0  0  0  0  0  0  0  0  0  0  0  0
    0.4993    2.9177    2.5120 O   0  0  0  0  0  0  0  0  0  0  0  0
    0.4797   -1.6670   -2.1224 O   0  0  0  0  0  0  0  0  0  0  0  0
   -1.8312   -1.6726   -0.1035 H   0  0  0  0  0  0  0  0  0  0  0  0
   -1.3938   -1.5615    1.5968 H   0  0  0  0  0  0  0  0  0  0  0  0
    0.9250   -1.6949    1.1576 H   0  0  0  0  0  0  0  0  0  0  0  0
    0.2069   -2.8792    0.0735 H   0  0  0  0  0  0  0  0  0  0  0  0
    1.4009    2.1487    0.2085 H   0  0  0  0  0  0  0  0  0  0  0  0
    2.0466    0.6203    0.8075 H   0  0  0  0  0  0  0  0  0  0  0  0
   -1.3352    0.1425   -1.6985 H   0  0  0  0  0  0  0  0  0  0  0  0
   -0.9890    1.7727   -1.1002 H   0  0  0  0  0  0  0  0  0  0  0  0
    0.1944    0.3737    2.2254 H   0  0  0  0  0  0  0  0  0  0  0  0
   -2.1670    0.6433    0.7538 H   0  0  0  0  0  0  0  0  0  0  0  0
    1.1969    0.8843   -1.7952 H   0  0  0  0  0  0  0  0  0  0  0  0
    2.0454   -1.2907   -0.8754 H   0  0  0  0  0  0  0  0  0  0  0  0
    0.2325    3.8047    2.8349 H   0  0  0  0  0  0  0  0  0  0  0  0
    0.7146   -2.6067   -2.0929 H   0  0  0  0  0  0  0  0  0  0  0  0
  1  6  1  0  0  0  0
  1 10  2  0  0  0  0
  1 11  1  0  0  0  0
  2  3  1  0  0  0  0
  2  7  1  0  0  0  0
  3  9  1  0  0  0  0
  4  6  1  0  0  0  0
  4  8  1  0  0  0  0
  5  7  1  0  0  0  0
  5  8  1  0  0  0  0
  6  7  1  0  0  0  0
  8  9  1  0  0  0  0
  9 12  1  0  0  0  0
  2 13  1  0  0  0  0
  2 14  1  0  0  0  0
  3 15  1  0  0  0  0
  3 16  1  0  0  0  0
  4 17  1  0  0  0  0
  4 18  1  0  0  0  0
  5 19  1  0  0  0  0
  5 20  1  0  0  0  0
  6 21  1  0  0  0  0
  7 22  1  0  0  0  0
  8 23  1  0  0  0  0
  9 24  1  0  0  0  0
 11 25  1  0  0  0  0
 12 26  1  0  0  0  0
M  END
$$$$
frag.vs.013_2
  -OEChem-01121112253D

 26 27  0     1  0  0  0  0  0999 V2000
   -0.7936    2.3734    1.6157 C   0  0  0  0  0  0  0  0  0  0  0  0
   -0.9991   -1.2954    0.6519 C   0  0  0  0  0  0  0  0  0  0  0  0
   -0.9400   -1.3266   -0.8822 C   0  0  0  0  0  0  0  0  0  0  0  0
    0.0282    1.5245   -0.5940 C   0  0  0  0  0  0  0  0  0  0  0  0
    1.1437   -0.0342    0.8244 C   0  0  0  0  0  0  0  0  0  0  0  0
   -0.8723    1.2499    0.6255 C   0  0  1  0  0  0  0  0  0  0  0  0
   -0.3239   -0.0481    1.2528 C   0  0  1  0  0  0  0  0  0  0  0  0
    1.0018    0.3354   -0.6515 C   0  0  1  0  0  0  0  0  0  0  0  0
    0.4097   -0.8509   -1.4393 C   0  0  1  0  0  0  0  0  0  0  0  0
   -0.3884    2.2698    2.7639 O   0  0  0  0  0  0  0  0  0  0  0  0
   -1.2380    3.5292    1.0645 O   0  0  0  0  0  0  0  0  0  0  0  0
    1.3455   -1.9282   -1.4033 O   0  0  0  0  0  0  0  0  0  0  0  0
   -2.0464   -1.3446    0.9729 H   0  0  0  0  0  0  0  0  0  0  0  0
   -0.5074   -2.1931    1.0475 H   0  0  0  0  0  0  0  0  0  0  0  0
   -1.1658   -2.3420   -1.2290 H   0  0  0  0  0  0  0  0  0  0  0  0
   -1.7329   -0.6774   -1.2737 H   0  0  0  0  0  0  0  0  0  0  0  0
   -0.5576    1.6172   -1.5150 H   0  0  0  0  0  0  0  0  0  0  0  0
    0.5895    2.4590   -0.4719 H   0  0  0  0  0  0  0  0  0  0  0  0
    1.7044    0.7374    1.3661 H   0  0  0  0  0  0  0  0  0  0  0  0
    1.6472   -0.9919    0.9893 H   0  0  0  0  0  0  0  0  0  0  0  0
   -1.9243    1.1542    0.3381 H   0  0  0  0  0  0  0  0  0  0  0  0
   -0.4173   -0.0667    2.3440 H   0  0  0  0  0  0  0  0  0  0  0  0
    1.9702    0.6210   -1.0760 H   0  0  0  0  0  0  0  0  0  0  0  0
    0.2860   -0.5718   -2.4926 H   0  0  0  0  0  0  0  0  0  0  0  0
   -1.1963    4.2770    1.6981 H   0  0  0  0  0  0  0  0  0  0  0  0
    0.9723   -2.6336   -1.9531 H   0  0  0  0  0  0  0  0  0  0  0  0
  1  6  1  0  0  0  0
  1 10  2  0  0  0  0
  1 11  1  0  0  0  0
  2  3  1  0  0  0  0
  2  7  1  0  0  0  0
  3  9  1  0  0  0  0
  4  6  1  0  0  0  0
  4  8  1  0  0  0  0
  5  7  1  0  0  0  0
  5  8  1  0  0  0  0
  6  7  1  0  0  0  0
  8  9  1  0  0  0  0
  9 12  1  0  0  0  0
  2 13  1  0  0  0  0
  2 14  1  0  0  0  0
  3 15  1  0  0  0  0
  3 16  1  0  0  0  0
  4 17  1  0  0  0  0
  4 18  1  0  0  0  0
  5 19  1  0  0  0  0
  5 20  1  0  0  0  0
  6 21  1  0  0  0  0
  7 22  1  0  0  0  0
  8 23  1  0  0  0  0
  9 24  1  0  0  0  0
 11 25  1  0  0  0  0
 12 26  1  0  0  0  0
M  END
$$$$
frag.vs.013_3
  -OEChem-01121112253D

 26 27  0     1  0  0  0  0  0999 V2000
   -0.7724    2.6960    0.8422 C   0  0  0  0  0  0  0  0  0  0  0  0
   -0.9995   -1.0939    1.1280 C   0  0  0  0  0  0  0  0  0  0  0  0
   -0.8015   -1.6214   -0.2971 C   0  0  0  0  0  0  0  0  0  0  0  0
    0.1895    1.1603   -0.8758 C   0  0  0  0  0  0  0  0  0  0  0  0
    1.1589    0.1635    1.0641 C   0  0  0  0  0  0  0  0  0  0  0  0
   -0.8061    1.3019    0.2907 C   0  0  1  0  0  0  0  0  0  0  0  0
   -0.3405    0.2818    1.3489 C   0  0  1  0  0  0  0  0  0  0  0  0
    1.1483    0.0295   -0.4553 C   0  0  1  0  0  0  0  0  0  0  0  0
    0.6150   -1.3693   -0.8266 C   0  0  2  0  0  0  0  0  0  0  0  0
   -0.4650    2.9904    1.9877 O   0  0  0  0  0  0  0  0  0  0  0  0
   -1.1340    3.5948   -0.1059 O   0  0  0  0  0  0  0  0  0  0  0  0
    0.6099   -1.5399   -2.2403 O   0  0  0  0  0  0  0  0  0  0  0  0
   -2.0721   -1.0355    1.3466 H   0  0  0  0  0  0  0  0  0  0  0  0
   -0.5716   -1.8125    1.8384 H   0  0  0  0  0  0  0  0  0  0  0  0
   -1.0288   -2.6940   -0.3372 H   0  0  0  0  0  0  0  0  0  0  0  0
   -1.5352   -1.1548   -0.9675 H   0  0  0  0  0  0  0  0  0  0  0  0
   -0.3232    0.9378   -1.8174 H   0  0  0  0  0  0  0  0  0  0  0  0
    0.7553    2.0877   -1.0286 H   0  0  0  0  0  0  0  0  0  0  0  0
    1.6915    1.0710    1.3723 H   0  0  0  0  0  0  0  0  0  0  0  0
    1.6243   -0.6902    1.5676 H   0  0  0  0  0  0  0  0  0  0  0  0
   -1.8350    1.1167   -0.0372 H   0  0  0  0  0  0  0  0  0  0  0  0
   -0.5229    0.6186    2.3752 H   0  0  0  0  0  0  0  0  0  0  0  0
    2.1393    0.1825   -0.8955 H   0  0  0  0  0  0  0  0  0  0  0  0
    1.2869   -2.1307   -0.4114 H   0  0  0  0  0  0  0  0  0  0  0  0
   -1.1201    4.5140    0.2363 H   0  0  0  0  0  0  0  0  0  0  0  0
    0.3289   -2.4530   -2.4086 H   0  0  0  0  0  0  0  0  0  0  0  0
  1  6  1  0  0  0  0
  1 10  2  0  0  0  0
  1 11  1  0  0  0  0
  2  3  1  0  0  0  0
  2  7  1  0  0  0  0
  3  9  1  0  0  0  0
  4  6  1  0  0  0  0
  4  8  1  0  0  0  0
  5  7  1  0  0  0  0
  5  8  1  0  0  0  0
  6  7  1  0  0  0  0
  8  9  1  0  0  0  0
  9 12  1  0  0  0  0
  2 13  1  0  0  0  0
  2 14  1  0  0  0  0
  3 15  1  0  0  0  0
  3 16  1  0  0  0  0
  4 17  1  0  0  0  0
  4 18  1  0  0  0  0
  5 19  1  0  0  0  0
  5 20  1  0  0  0  0
  6 21  1  0  0  0  0
  7 22  1  0  0  0  0
  8 23  1  0  0  0  0
  9 24  1  0  0  0  0
 11 25  1  0  0  0  0
 12 26  1  0  0  0  0
M  END
$$$$
frag.vs.014
  -OEChem-01121112253D

 19 20  0     0  0  0  0  0  0999 V2000
    1.9338   -0.9390   -0.0015 C   0  0  0  0  0  0  0  0  0  0  0  0
    3.0723   -1.2223    0.7509 C   0  0  0  0  0  0  0  0  0  0  0  0
    0.9988    0.1958    1.8989 C   0  0  0  0  0  0  0  0  0  0  0  0
    4.3566   -0.6622    4.0538 C   0  0  0  0  0  0  0  0  0  0  0  0
    3.3285    0.0410    4.6230 C   0  0  0  0  0  0  0  0  0  0  0  0
    0.8925   -0.2271    0.5751 C   0  0  0  0  0  0  0  0  0  0  0  0
    3.1886   -0.8044    2.0745 C   0  0  0  0  0  0  0  0  0  0  0  0
    2.1323   -0.0820    2.6593 C   0  0  0  0  0  0  0  0  0  0  0  0
   -0.3019    0.0767   -0.1965 C   0  0  0  0  0  0  0  0  0  0  0  0
    4.2972   -1.0899    2.7798 N   0  0  0  0  0  0  0  0  0  0  0  0
    2.2113    0.3367    3.9346 N   0  0  0  0  0  0  0  0  0  0  0  0
   -1.2833    0.7019    0.2189 O   0  0  0  0  0  0  0  0  0  0  0  0
   -0.2382   -0.4075   -1.4673 O   0  0  0  0  0  0  0  0  0  0  0  0
    1.8740   -1.2798   -1.0316 H   0  0  0  0  0  0  0  0  0  0  0  0
    3.8818   -1.7818    0.2861 H   0  0  0  0  0  0  0  0  0  0  0  0
    0.1799    0.7550    2.3493 H   0  0  0  0  0  0  0  0  0  0  0  0
    5.2596   -0.9059    4.5988 H   0  0  0  0  0  0  0  0  0  0  0  0
    3.3656    0.3894    5.6473 H   0  0  0  0  0  0  0  0  0  0  0  0
   -1.0394   -0.2069   -1.9966 H   0  0  0  0  0  0  0  0  0  0  0  0
  1  2  1  0  0  0  0
  1  6  2  0  0  0  0
  2  7  2  0  0  0  0
  3  6  1  0  0  0  0
  3  8  2  0  0  0  0
  4  5  1  0  0  0  0
  4 10  2  0  0  0  0
  5 11  2  0  0  0  0
  6  9  1  0  0  0  0
  7  8  1  0  0  0  0
  7 10  1  0  0  0  0
  8 11  1  0  0  0  0
  9 12  2  0  0  0  0
  9 13  1  0  0  0  0
  1 14  1  0  0  0  0
  2 15  1  0  0  0  0
  3 16  1  0  0  0  0
  4 17  1  0  0  0  0
  5 18  1  0  0  0  0
 13 19  1  0  0  0  0
M  END
$$$$
frag.vs.015
  -OEChem-01121112253D

 22 23  0     0  0  0  0  0  0999 V2000
    1.9338   -0.9390   -0.0015 C   0  0  0  0  0  0  0  0  0  0  0  0
    3.0723   -1.2223    0.7509 C   0  0  0  0  0  0  0  0  0  0  0  0
    0.9988    0.1958    1.8989 C   0  0  0  0  0  0  0  0  0  0  0  0
    4.3566   -0.6622    4.0538 C   0  0  0  0  0  0  0  0  0  0  0  0
    3.3285    0.0410    4.6230 C   0  0  0  0  0  0  0  0  0  0  0  0
    0.8925   -0.2271    0.5751 C   0  0  0  0  0  0  0  0  0  0  0  0
    3.1886   -0.8044    2.0745 C   0  0  0  0  0  0  0  0  0  0  0  0
    2.1323   -0.0820    2.6593 C   0  0  0  0  0  0  0  0  0  0  0  0
   -0.3019    0.0767   -0.1965 C   0  0  0  0  0  0  0  0  0  0  0  0
   -1.3372   -0.1813   -2.3308 C   0  0  0  0  0  0  0  0  0  0  0  0
    4.2972   -1.0899    2.7798 N   0  0  0  0  0  0  0  0  0  0  0  0
    2.2113    0.3367    3.9346 N   0  0  0  0  0  0  0  0  0  0  0  0
   -1.2760    0.7054    0.2387 O   0  0  0  0  0  0  0  0  0  0  0  0
   -0.2183   -0.4180   -1.4695 O   0  0  0  0  0  0  0  0  0  0  0  0
    1.8740   -1.2798   -1.0316 H   0  0  0  0  0  0  0  0  0  0  0  0
    3.8818   -1.7818    0.2861 H   0  0  0  0  0  0  0  0  0  0  0  0
    0.1799    0.7550    2.3493 H   0  0  0  0  0  0  0  0  0  0  0  0
    5.2596   -0.9059    4.5988 H   0  0  0  0  0  0  0  0  0  0  0  0
    3.3656    0.3894    5.6473 H   0  0  0  0  0  0  0  0  0  0  0  0
   -1.1439   -0.6247   -3.3106 H   0  0  0  0  0  0  0  0  0  0  0  0
   -1.4993    0.8948   -2.4315 H   0  0  0  0  0  0  0  0  0  0  0  0
   -2.2260   -0.6423   -1.8936 H   0  0  0  0  0  0  0  0  0  0  0  0
  1  2  2  0  0  0  0
  1  6  1  0  0  0  0
  2  7  1  0  0  0  0
  3  6  2  0  0  0  0
  3  8  1  0  0  0  0
  4  5  2  0  0  0  0
  4 11  1  0  0  0  0
  5 12  1  0  0  0  0
  6  9  1  0  0  0  0
  7  8  1  0  0  0  0
  7 11  2  0  0  0  0
  8 12  2  0  0  0  0
  9 13  2  0  0  0  0
  9 14  1  0  0  0  0
 10 14  1  0  0  0  0
  1 15  1  0  0  0  0
  2 16  1  0  0  0  0
  3 17  1  0  0  0  0
  4 18  1  0  0  0  0
  5 19  1  0  0  0  0
 10 20  1  0  0  0  0
 10 21  1  0  0  0  0
 10 22  1  0  0  0  0
M  END
$$$$
frag.vs.016
  -OEChem-01121112253D

 29 30  0     0  0  0  0  0  0999 V2000
    2.5725   -0.1155   -1.6219 C   0  0  0  0  0  0  0  0  0  0  0  0
    1.8306    2.1429   -1.1904 C   0  0  0  0  0  0  0  0  0  0  0  0
    3.8649    0.3538   -1.8563 C   0  0  0  0  0  0  0  0  0  0  0  0
    3.1230    2.6122   -1.4248 C   0  0  0  0  0  0  0  0  0  0  0  0
    1.5553    0.7790   -1.2890 C   0  0  0  0  0  0  0  0  0  0  0  0
    4.1402    1.7177   -1.7577 C   0  0  0  0  0  0  0  0  0  0  0  0
    0.1978    0.2857   -1.0427 C   0  0  0  0  0  0  0  0  0  0  0  0
   -0.5769    0.4511   -3.4111 C   0  0  0  0  0  0  0  0  0  0  0  0
   -1.8684   -0.9300   -1.7434 C   0  0  0  0  0  0  0  0  0  0  0  0
   -1.6538    1.5284   -3.2727 C   0  0  0  0  0  0  0  0  0  0  0  0
   -2.8909    0.2055   -1.6751 C   0  0  0  0  0  0  0  0  0  0  0  0
   -0.4835   -0.4384   -2.1696 C   0  0  0  0  0  0  0  0  0  0  0  0
   -2.9526    0.9479   -2.9337 N   0  0  0  0  0  0  0  0  0  0  0  0
   -0.4136    0.4283    0.0110 O   0  0  0  0  0  0  0  0  0  0  0  0
    5.3813    2.1684   -1.9827 F   0  0  0  0  0  0  0  0  0  0  0  0
    2.3691   -1.1803   -1.7013 H   0  0  0  0  0  0  0  0  0  0  0  0
    1.0456    2.8489   -0.9310 H   0  0  0  0  0  0  0  0  0  0  0  0
    4.6570   -0.3425   -2.1153 H   0  0  0  0  0  0  0  0  0  0  0  0
    3.3375    3.6743   -1.3485 H   0  0  0  0  0  0  0  0  0  0  0  0
   -0.8098   -0.1762   -4.2815 H   0  0  0  0  0  0  0  0  0  0  0  0
    0.3887    0.9300   -3.6139 H   0  0  0  0  0  0  0  0  0  0  0  0
   -1.8141   -1.4259   -0.7668 H   0  0  0  0  0  0  0  0  0  0  0  0
   -2.2168   -1.6816   -2.4639 H   0  0  0  0  0  0  0  0  0  0  0  0
   -1.3622    2.2698   -2.5190 H   0  0  0  0  0  0  0  0  0  0  0  0
   -1.7450    2.0641   -4.2241 H   0  0  0  0  0  0  0  0  0  0  0  0
   -3.8795   -0.2205   -1.4706 H   0  0  0  0  0  0  0  0  0  0  0  0
   -2.6643    0.8848   -0.8450 H   0  0  0  0  0  0  0  0  0  0  0  0
    0.1477   -1.3018   -2.3939 H   0  0  0  0  0  0  0  0  0  0  0  0
   -3.6426    1.6939   -2.8505 H   0  0  0  0  0  0  0  0  0  0  0  0
  1  3  1  0  0  0  0
  1  5  2  0  0  0  0
  2  4  2  0  0  0  0
  2  5  1  0  0  0  0
  3  6  2  0  0  0  0
  4  6  1  0  0  0  0
  5  7  1  0  0  0  0
  6 15  1  0  0  0  0
  7 12  1  0  0  0  0
  7 14  2  0  0  0  0
  8 10  1  0  0  0  0
  8 12  1  0  0  0  0
  9 11  1  0  0  0  0
  9 12  1  0  0  0  0
 10 13  1  0  0  0  0
 11 13  1  0  0  0  0
  1 16  1  0  0  0  0
  2 17  1  0  0  0  0
  3 18  1  0  0  0  0
  4 19  1  0  0  0  0
  8 20  1  0  0  0  0
  8 21  1  0  0  0  0
  9 22  1  0  0  0  0
  9 23  1  0  0  0  0
 10 24  1  0  0  0  0
 10 25  1  0  0  0  0
 11 26  1  0  0  0  0
 11 27  1  0  0  0  0
 12 28  1  0  0  0  0
 13 29  1  0  0  0  0
M  END
$$$$
frag.vs.017
  -OEChem-01121112253D

 24 25  0     0  0  0  0  0  0999 V2000
    0.4412   -0.9810   -0.1038 C   0  0  0  0  0  0  0  0  0  0  0  0
    0.0290   -2.0344   -0.9337 C   0  0  0  0  0  0  0  0  0  0  0  0
    0.9275   -3.0410   -0.6791 C   0  0  0  0  0  0  0  0  0  0  0  0
    1.1079   -4.3690   -1.1581 C   0  0  0  0  0  0  0  0  0  0  0  0
    2.1244   -5.1136   -0.6847 C   0  0  0  0  0  0  0  0  0  0  0  0
    3.0460   -4.5917    0.3084 C   0  0  0  0  0  0  0  0  0  0  0  0
    2.8794   -3.3397    0.7628 C   0  0  0  0  0  0  0  0  0  0  0  0
   -1.0713   -2.0832   -1.8487 C   0  0  0  0  0  0  0  0  0  0  0  0
   -3.5513    0.5350   -2.6214 C   0  0  0  0  0  0  0  0  0  0  0  0
   -2.9153   -0.8326   -2.7513 C   0  0  0  0  0  0  0  0  0  0  0  0
    1.5160   -1.2785    0.6277 N   0  0  0  0  0  0  0  0  0  0  0  0
    1.8260   -2.5563    0.2776 N   0  0  0  0  0  0  0  0  0  0  0  0
   -1.3771   -3.0663   -2.5594 O   0  0  0  0  0  0  0  0  0  0  0  0
   -1.7868   -0.9074   -1.8735 O   0  0  0  0  0  0  0  0  0  0  0  0
    0.0017    0.0008    0.0028 H   0  0  0  0  0  0  0  0  0  0  0  0
    0.4276   -4.7730   -1.9000 H   0  0  0  0  0  0  0  0  0  0  0  0
    2.2807   -6.1278   -1.0357 H   0  0  0  0  0  0  0  0  0  0  0  0
    3.8503   -5.2254    0.6616 H   0  0  0  0  0  0  0  0  0  0  0  0
    3.5314   -2.8926    1.5033 H   0  0  0  0  0  0  0  0  0  0  0  0
   -3.8933    0.7106   -1.5976 H   0  0  0  0  0  0  0  0  0  0  0  0
   -2.8386    1.3197   -2.8956 H   0  0  0  0  0  0  0  0  0  0  0  0
   -4.4054    0.6294   -3.3002 H   0  0  0  0  0  0  0  0  0  0  0  0
   -2.5755   -1.0019   -3.7774 H   0  0  0  0  0  0  0  0  0  0  0  0
   -3.6284   -1.6154   -2.4762 H   0  0  0  0  0  0  0  0  0  0  0  0
  1  2  1  0  0  0  0
  1 11  2  0  0  0  0
  2  3  2  0  0  0  0
  2  8  1  0  0  0  0
  3  4  1  0  0  0  0
  3 12  1  0  0  0  0
  4  5  2  0  0  0  0
  5  6  1  0  0  0  0
  6  7  2  0  0  0  0
  7 12  1  0  0  0  0
  8 13  2  0  0  0  0
  8 14  1  0  0  0  0
  9 10  1  0  0  0  0
 10 14  1  0  0  0  0
 11 12  1  0  0  0  0
  1 15  1  0  0  0  0
  4 16  1  0  0  0  0
  5 17  1  0  0  0  0
  6 18  1  0  0  0  0
  7 19  1  0  0  0  0
  9 20  1  0  0  0  0
  9 21  1  0  0  0  0
  9 22  1  0  0  0  0
 10 23  1  0  0  0  0
 10 24  1  0  0  0  0
M  END
$$$$
frag.vs.018_0
  -OEChem-01121112253D

 26 27  0     1  0  0  0  0  0999 V2000
    1.8826   -1.0353   -0.1125 C   0  0  0  0  0  0  0  0  0  0  0  0
    2.5610   -2.0312    0.5900 C   0  0  0  0  0  0  0  0  0  0  0  0
    1.1627   -0.0610    0.5791 C   0  0  0  0  0  0  0  0  0  0  0  0
    4.7689   -0.4211    6.3419 C   0  0  0  0  0  0  0  0  0  0  0  0
    4.9931    0.9177    6.0409 C   0  0  0  0  0  0  0  0  0  0  0  0
    2.5196   -2.0529    1.9841 C   0  0  0  0  0  0  0  0  0  0  0  0
    1.1213   -0.0827    1.9732 C   0  0  0  0  0  0  0  0  0  0  0  0
    3.7143   -1.0966    5.7378 C   0  0  0  0  0  0  0  0  0  0  0  0
    4.1410    1.5306    5.1364 C   0  0  0  0  0  0  0  0  0  0  0  0
    1.7997   -1.0786    2.6757 C   0  0  0  0  0  0  0  0  0  0  0  0
    2.9194   -0.3935    4.8470 C   0  0  0  0  0  0  0  0  0  0  0  0
    1.7548   -1.1014    4.1663 C   0  0  1  0  0  0  0  0  0  0  0  0
    3.1063    0.9073    4.5295 N   0  0  0  0  0  0  0  0  0  0  0  0
    0.4907   -0.5372    4.6746 N   0  0  0  0  0  0  0  0  0  0  0  0
    1.9161   -1.0178   -1.1980 H   0  0  0  0  0  0  0  0  0  0  0  0
    3.1225   -2.7893    0.0517 H   0  0  0  0  0  0  0  0  0  0  0  0
    0.6353    0.7151    0.0325 H   0  0  0  0  0  0  0  0  0  0  0  0
    5.4148   -0.9370    7.0460 H   0  0  0  0  0  0  0  0  0  0  0  0
    5.8091    1.4641    6.4998 H   0  0  0  0  0  0  0  0  0  0  0  0
    3.0511   -2.8328    2.5231 H   0  0  0  0  0  0  0  0  0  0  0  0
    0.5578    0.6804    2.5036 H   0  0  0  0  0  0  0  0  0  0  0  0
    3.5287   -2.1411    5.9640 H   0  0  0  0  0  0  0  0  0  0  0  0
    4.2734    2.5735    4.8678 H   0  0  0  0  0  0  0  0  0  0  0  0
    1.7455   -2.1440    4.5334 H   0  0  0  0  0  0  0  0  0  0  0  0
    0.4852   -0.1998    5.6057 H   0  0  0  0  0  0  0  0  0  0  0  0
   -0.3285   -0.7069    4.1447 H   0  0  0  0  0  0  0  0  0  0  0  0
  1  2  1  0  0  0  0
  1  3  2  0  0  0  0
  2  6  2  0  0  0  0
  3  7  1  0  0  0  0
  4  5  1  0  0  0  0
  4  8  2  0  0  0  0
  5  9  2  0  0  0  0
  6 10  1  0  0  0  0
  7 10  2  0  0  0  0
  8 11  1  0  0  0  0
  9 13  1  0  0  0  0
 10 12  1  0  0  0  0
 11 12  1  0  0  0  0
 11 13  2  0  0  0  0
 12 14  1  0  0  0  0
  1 15  1  0  0  0  0
  2 16  1  0  0  0  0
  3 17  1  0  0  0  0
  4 18  1  0  0  0  0
  5 19  1  0  0  0  0
  6 20  1  0  0  0  0
  7 21  1  0  0  0  0
  8 22  1  0  0  0  0
  9 23  1  0  0  0  0
 12 24  1  0  0  0  0
 14 25  1  0  0  0  0
 14 26  1  0  0  0  0
M  END
$$$$
frag.vs.018_1
  -OEChem-01121112253D

 26 27  0     1  0  0  0  0  0999 V2000
    1.8841   -1.0348   -0.1124 C   0  0  0  0  0  0  0  0  0  0  0  0
    1.1594   -2.0270    0.5478 C   0  0  0  0  0  0  0  0  0  0  0  0
    2.5666   -0.0645    0.6214 C   0  0  0  0  0  0  0  0  0  0  0  0
   -1.4005   -0.4494    6.1412 C   0  0  0  0  0  0  0  0  0  0  0  0
   -1.6152    0.8882    5.8283 C   0  0  0  0  0  0  0  0  0  0  0  0
    1.1172   -2.0489    1.9418 C   0  0  0  0  0  0  0  0  0  0  0  0
    2.5244   -0.0864    2.0154 C   0  0  0  0  0  0  0  0  0  0  0  0
   -0.3032   -1.1153    5.6064 C   0  0  0  0  0  0  0  0  0  0  0  0
   -0.7106    1.5098    4.9827 C   0  0  0  0  0  0  0  0  0  0  0  0
    1.7997   -1.0786    2.6757 C   0  0  0  0  0  0  0  0  0  0  0  0
    0.5426   -0.4041    4.7706 C   0  0  0  0  0  0  0  0  0  0  0  0
    1.7548   -1.1014    4.1663 C   0  0  2  0  0  0  0  0  0  0  0  0
    0.3666    0.8959    4.4438 N   0  0  0  0  0  0  0  0  0  0  0  0
    2.9915   -0.5426    4.7431 N   0  0  0  0  0  0  0  0  0  0  0  0
    1.9180   -1.0186   -1.1979 H   0  0  0  0  0  0  0  0  0  0  0  0
    0.6288   -2.7832   -0.0234 H   0  0  0  0  0  0  0  0  0  0  0  0
    3.1318    0.7075    0.1077 H   0  0  0  0  0  0  0  0  0  0  0  0
   -2.0870   -0.9719    6.8006 H   0  0  0  0  0  0  0  0  0  0  0  0
   -2.4639    1.4272    6.2336 H   0  0  0  0  0  0  0  0  0  0  0  0
    0.5499   -2.8257    2.4478 H   0  0  0  0  0  0  0  0  0  0  0  0
    3.0591    0.6737    2.5789 H   0  0  0  0  0  0  0  0  0  0  0  0
   -0.1245   -2.1587    5.8427 H   0  0  0  0  0  0  0  0  0  0  0  0
   -0.8333    2.5522    4.7078 H   0  0  0  0  0  0  0  0  0  0  0  0
    1.7455   -2.1440    4.5334 H   0  0  0  0  0  0  0  0  0  0  0  0
    3.8375   -0.7138    4.2577 H   0  0  0  0  0  0  0  0  0  0  0  0
    2.9479   -0.2072    5.6740 H   0  0  0  0  0  0  0  0  0  0  0  0
  1  2  1  0  0  0  0
  1  3  2  0  0  0  0
  2  6  2  0  0  0  0
  3  7  1  0  0  0  0
  4  5  1  0  0  0  0
  4  8  2  0  0  0  0
  5  9  2  0  0  0  0
  6 10  1  0  0  0  0
  7 10  2  0  0  0  0
  8 11  1  0  0  0  0
  9 13  1  0  0  0  0
 10 12  1  0  0  0  0
 11 12  1  0  0  0  0
 11 13  2  0  0  0  0
 12 14  1  0  0  0  0
  1 15  1  0  0  0  0
  2 16  1  0  0  0  0
  3 17  1  0  0  0  0
  4 18  1  0  0  0  0
  5 19  1  0  0  0  0
  6 20  1  0  0  0  0
  7 21  1  0  0  0  0
  8 22  1  0  0  0  0
  9 23  1  0  0  0  0
 12 24  1  0  0  0  0
 14 25  1  0  0  0  0
 14 26  1  0  0  0  0
M  END
$$$$
frag.vs.019
  -OEChem-01121112253D

 20 20  0     0  0  0  0  0  0999 V2000
   -0.2303   -1.3824   -1.7538 C   0  0  0  0  0  0  0  0  0  0  0  0
    0.0890   -0.9817   -0.4426 C   0  0  0  0  0  0  0  0  0  0  0  0
    0.0707   -2.7221   -1.7863 C   0  0  0  0  0  0  0  0  0  0  0  0
   -0.0378    0.3647    0.1402 C   0  0  0  0  0  0  0  0  0  0  0  0
    0.9794   -4.3235   -0.0762 C   0  0  0  0  0  0  0  0  0  0  0  0
   -0.0401   -3.7136   -2.8718 C   0  0  0  0  0  0  0  0  0  0  0  0
    0.5568   -1.9856    0.3039 N   0  0  0  0  0  0  0  0  0  0  0  0
    0.5336   -3.0305   -0.5409 N   0  0  0  0  0  0  0  0  0  0  0  0
    1.2382   -4.0513   -3.4610 N   0  0  0  0  0  0  0  0  0  0  0  0
   -0.6231   -0.7839   -2.5631 H   0  0  0  0  0  0  0  0  0  0  0  0
   -1.0305    0.5108    0.5995 H   0  0  0  0  0  0  0  0  0  0  0  0
    0.7205    0.5547    0.9207 H   0  0  0  0  0  0  0  0  0  0  0  0
    0.0997    1.1604   -0.6139 H   0  0  0  0  0  0  0  0  0  0  0  0
    2.0521   -4.4008   -0.2721 H   0  0  0  0  0  0  0  0  0  0  0  0
    0.7789   -4.4143    0.9950 H   0  0  0  0  0  0  0  0  0  0  0  0
    0.4346   -5.1070   -0.6102 H   0  0  0  0  0  0  0  0  0  0  0  0
   -0.4882   -4.6613   -2.5216 H   0  0  0  0  0  0  0  0  0  0  0  0
   -0.6840   -3.3615   -3.6980 H   0  0  0  0  0  0  0  0  0  0  0  0
    1.2617   -4.3677   -4.4126 H   0  0  0  0  0  0  0  0  0  0  0  0
    2.0332   -4.1581   -2.8586 H   0  0  0  0  0  0  0  0  0  0  0  0
  1  2  1  0  0  0  0
  1  3  2  0  0  0  0
  2  4  1  0  0  0  0
  2  7  2  0  0  0  0
  3  6  1  0  0  0  0
  3  8  1  0  0  0  0
  5  8  1  0  0  0  0
  6  9  1  0  0  0  0
  7  8  1  0  0  0  0
  1 10  1  0  0  0  0
  4 11  1  0  0  0  0
  4 12  1  0  0  0  0
  4 13  1  0  0  0  0
  5 14  1  0  0  0  0
  5 15  1  0  0  0  0
  5 16  1  0  0  0  0
  6 17  1  0  0  0  0
  6 18  1  0  0  0  0
  9 19  1  0  0  0  0
  9 20  1  0  0  0  0
M  END
$$$$
frag.vs.020_0
  -OEChem-01121112253D

 36 37  0     1  0  0  0  0  0999 V2000
    0.8139   -0.6417    0.3646 C   0  0  0  0  0  0  0  0  0  0  0  0
    2.0314   -2.0783   -2.9682 C   0  0  0  0  0  0  0  0  0  0  0  0
    1.1415   -1.3008   -2.0025 C   0  0  0  0  0  0  0  0  0  0  0  0
    2.4002   -3.4473   -2.3992 C   0  0  0  0  0  0  0  0  0  0  0  0
    2.8098    0.2503    1.6596 C   0  0  0  0  0  0  0  0  0  0  0  0
    0.5109    0.8053    2.3462 C   0  0  0  0  0  0  0  0  0  0  0  0
    3.1658    0.0233    3.1300 C   0  0  0  0  0  0  0  0  0  0  0  0
    0.9089    0.5620    3.8016 C   0  0  0  0  0  0  0  0  0  0  0  0
    2.1504   -2.6597   -0.1313 C   0  0  0  0  0  0  0  0  0  0  0  0
    1.7710   -1.2556   -0.6099 C   0  0  2  0  0  0  0  0  0  0  0  0
    2.7024    0.6567    5.4091 C   0  0  0  0  0  0  0  0  0  0  0  0
    3.0344   -3.3375   -1.0833 N   0  0  0  0  0  0  0  0  0  0  0  0
    1.3743    0.0634    1.4287 N   0  0  0  0  0  0  0  0  0  0  0  0
    2.3339    0.8587    4.0084 N   0  0  0  0  0  0  0  0  0  0  0  0
   -0.3991   -0.7852    0.1918 O   0  0  0  0  0  0  0  0  0  0  0  0
    1.5179   -2.2007   -3.9284 H   0  0  0  0  0  0  0  0  0  0  0  0
    2.9453   -1.5035   -3.1647 H   0  0  0  0  0  0  0  0  0  0  0  0
    0.9769   -0.2836   -2.3810 H   0  0  0  0  0  0  0  0  0  0  0  0
    0.1513   -1.7755   -1.9566 H   0  0  0  0  0  0  0  0  0  0  0  0
    1.5084   -4.0825   -2.3340 H   0  0  0  0  0  0  0  0  0  0  0  0
    3.0959   -3.9435   -3.0847 H   0  0  0  0  0  0  0  0  0  0  0  0
    3.0511    1.2780    1.3609 H   0  0  0  0  0  0  0  0  0  0  0  0
    3.4105   -0.4165    1.0378 H   0  0  0  0  0  0  0  0  0  0  0  0
   -0.5383    0.5297    2.1986 H   0  0  0  0  0  0  0  0  0  0  0  0
    0.6077    1.8682    2.0931 H   0  0  0  0  0  0  0  0  0  0  0  0
    3.0392   -1.0395    3.3761 H   0  0  0  0  0  0  0  0  0  0  0  0
    4.2250    0.2699    3.2713 H   0  0  0  0  0  0  0  0  0  0  0  0
    0.2946    1.2072    4.4410 H   0  0  0  0  0  0  0  0  0  0  0  0
    0.6886   -0.4794    4.0724 H   0  0  0  0  0  0  0  0  0  0  0  0
    2.6650   -2.5882    0.8356 H   0  0  0  0  0  0  0  0  0  0  0  0
    1.2535   -3.2701    0.0457 H   0  0  0  0  0  0  0  0  0  0  0  0
    2.6645   -0.6209   -0.6306 H   0  0  0  0  0  0  0  0  0  0  0  0
    2.0797    1.2809    6.0552 H   0  0  0  0  0  0  0  0  0  0  0  0
    3.7510    0.9237    5.5663 H   0  0  0  0  0  0  0  0  0  0  0  0
    2.5616   -0.3906    5.6897 H   0  0  0  0  0  0  0  0  0  0  0  0
    3.2503   -4.2709   -0.7349 H   0  0  0  0  0  0  0  0  0  0  0  0
  1 10  1  0  0  0  0
  1 13  1  0  0  0  0
  1 15  2  0  0  0  0
  2  3  1  0  0  0  0
  2  4  1  0  0  0  0
  3 10  1  0  0  0  0
  4 12  1  0  0  0  0
  5  7  1  0  0  0  0
  5 13  1  0  0  0  0
  6  8  1  0  0  0  0
  6 13  1  0  0  0  0
  7 14  1  0  0  0  0
  8 14  1  0  0  0  0
  9 10  1  0  0  0  0
  9 12  1  0  0  0  0
 11 14  1  0  0  0  0
  2 16  1  0  0  0  0
  2 17  1  0  0  0  0
  3 18  1  0  0  0  0
  3 19  1  0  0  0  0
  4 20  1  0  0  0  0
  4 21  1  0  0  0  0
  5 22  1  0  0  0  0
  5 23  1  0  0  0  0
  6 24  1  0  0  0  0
  6 25  1  0  0  0  0
  7 26  1  0  0  0  0
  7 27  1  0  0  0  0
  8 28  1  0  0  0  0
  8 29  1  0  0  0  0
  9 30  1  0  0  0  0
  9 31  1  0  0  0  0
 10 32  1  0  0  0  0
 11 33  1  0  0  0  0
 11 34  1  0  0  0  0
 11 35  1  0  0  0  0
 12 36  1  0  0  0  0
M  END
$$$$
frag.vs.020_1
  -OEChem-01121112253D

 36 37  0     1  0  0  0  0  0999 V2000
    0.9898   -0.4491   -0.1609 C   0  0  0  0  0  0  0  0  0  0  0  0
    3.2439   -1.0542   -3.1932 C   0  0  0  0  0  0  0  0  0  0  0  0
    2.5789   -1.3278   -1.8477 C   0  0  0  0  0  0  0  0  0  0  0  0
    2.2287   -0.5631   -4.2230 C   0  0  0  0  0  0  0  0  0  0  0  0
    2.9914    0.2915    1.2179 C   0  0  0  0  0  0  0  0  0  0  0  0
    0.8974   -0.4069    2.3093 C   0  0  0  0  0  0  0  0  0  0  0  0
    3.7717   -0.5071    2.2635 C   0  0  0  0  0  0  0  0  0  0  0  0
    1.7167   -1.1965    3.3295 C   0  0  0  0  0  0  0  0  0  0  0  0
    0.8027    0.3439   -2.4930 C   0  0  0  0  0  0  0  0  0  0  0  0
    1.7671   -0.1141   -1.3964 C   0  0  1  0  0  0  0  0  0  0  0  0
    3.8008   -1.3146    4.5345 C   0  0  0  0  0  0  0  0  0  0  0  0
    1.5099    0.6182   -3.7447 N   0  0  0  0  0  0  0  0  0  0  0  0
    1.6326   -0.2344    1.0574 N   0  0  0  0  0  0  0  0  0  0  0  0
    3.0334   -0.5752    3.5332 N   0  0  0  0  0  0  0  0  0  0  0  0
   -0.1559   -0.8933   -0.2702 O   0  0  0  0  0  0  0  0  0  0  0  0
    4.0322   -0.3016   -3.0643 H   0  0  0  0  0  0  0  0  0  0  0  0
    3.7299   -1.9662   -3.5575 H   0  0  0  0  0  0  0  0  0  0  0  0
    1.9289   -2.2099   -1.9344 H   0  0  0  0  0  0  0  0  0  0  0  0
    3.3399   -1.5797   -1.0975 H   0  0  0  0  0  0  0  0  0  0  0  0
    2.7464   -0.3108   -5.1550 H   0  0  0  0  0  0  0  0  0  0  0  0
    1.5152   -1.3598   -4.4655 H   0  0  0  0  0  0  0  0  0  0  0  0
    2.8947    1.3391    1.5291 H   0  0  0  0  0  0  0  0  0  0  0  0
    3.5429    0.2840    0.2755 H   0  0  0  0  0  0  0  0  0  0  0  0
   -0.0575   -0.9121    2.1310 H   0  0  0  0  0  0  0  0  0  0  0  0
    0.6696    0.5957    2.6914 H   0  0  0  0  0  0  0  0  0  0  0  0
    3.9697   -1.5164    1.8786 H   0  0  0  0  0  0  0  0  0  0  0  0
    4.7410   -0.0184    2.4194 H   0  0  0  0  0  0  0  0  0  0  0  0
    1.1623   -1.2197    4.2754 H   0  0  0  0  0  0  0  0  0  0  0  0
    1.8287   -2.2336    2.9857 H   0  0  0  0  0  0  0  0  0  0  0  0
    0.0165   -0.4039   -2.6674 H   0  0  0  0  0  0  0  0  0  0  0  0
    0.2817    1.2558   -2.1735 H   0  0  0  0  0  0  0  0  0  0  0  0
    2.4470    0.7074   -1.1378 H   0  0  0  0  0  0  0  0  0  0  0  0
    3.2454   -1.3606    5.4749 H   0  0  0  0  0  0  0  0  0  0  0  0
    4.7596   -0.8213    4.7159 H   0  0  0  0  0  0  0  0  0  0  0  0
    3.9911   -2.3339    4.1880 H   0  0  0  0  0  0  0  0  0  0  0  0
    2.1801    1.3711   -3.5867 H   0  0  0  0  0  0  0  0  0  0  0  0
  1 10  1  0  0  0  0
  1 13  1  0  0  0  0
  1 15  2  0  0  0  0
  2  3  1  0  0  0  0
  2  4  1  0  0  0  0
  3 10  1  0  0  0  0
  4 12  1  0  0  0  0
  5  7  1  0  0  0  0
  5 13  1  0  0  0  0
  6  8  1  0  0  0  0
  6 13  1  0  0  0  0
  7 14  1  0  0  0  0
  8 14  1  0  0  0  0
  9 10  1  0  0  0  0
  9 12  1  0  0  0  0
 11 14  1  0  0  0  0
  2 16  1  0  0  0  0
  2 17  1  0  0  0  0
  3 18  1  0  0  0  0
  3 19  1  0  0  0  0
  4 20  1  0  0  0  0
  4 21  1  0  0  0  0
  5 22  1  0  0  0  0
  5 23  1  0  0  0  0
  6 24  1  0  0  0  0
  6 25  1  0  0  0  0
  7 26  1  0  0  0  0
  7 27  1  0  0  0  0
  8 28  1  0  0  0  0
  8 29  1  0  0  0  0
  9 30  1  0  0  0  0
  9 31  1  0  0  0  0
 10 32  1  0  0  0  0
 11 33  1  0  0  0  0
 11 34  1  0  0  0  0
 11 35  1  0  0  0  0
 12 36  1  0  0  0  0
M  END
$$$$
frag.vs.021
  -OEChem-01121112253D

 18 18  0     0  0  0  0  0  0999 V2000
    1.8851   -1.0363   -0.1124 C   0  0  0  0  0  0  0  0  0  0  0  0
    0.8066   -0.4630    0.5610 C   0  0  0  0  0  0  0  0  0  0  0  0
    2.9210   -1.6309    0.6081 C   0  0  0  0  0  0  0  0  0  0  0  0
    0.7638   -0.4841    1.9551 C   0  0  0  0  0  0  0  0  0  0  0  0
    2.8783   -1.6520    2.0022 C   0  0  0  0  0  0  0  0  0  0  0  0
    1.7997   -1.0786    2.6757 C   0  0  0  0  0  0  0  0  0  0  0  0
    1.6853    0.1599    4.7166 C   0  0  0  0  0  0  0  0  0  0  0  0
    3.9335   -2.2572    2.7187 N   0  0  0  0  0  0  0  0  0  0  0  0
    1.7391   -1.0885    4.0371 O   0  0  0  0  0  0  0  0  0  0  0  0
    2.3287    1.1208    4.0202 F   0  0  0  0  0  0  0  0  0  0  0  0
    2.3014    0.0297    5.9135 F   0  0  0  0  0  0  0  0  0  0  0  0
    0.4088    0.5351    4.9449 F   0  0  0  0  0  0  0  0  0  0  0  0
    1.9187   -1.0191   -1.1978 H   0  0  0  0  0  0  0  0  0  0  0  0
   -0.0000   -0.0005   -0.0001 H   0  0  0  0  0  0  0  0  0  0  0  0
    3.7564   -2.0750    0.0725 H   0  0  0  0  0  0  0  0  0  0  0  0
   -0.0796   -0.0362    2.4738 H   0  0  0  0  0  0  0  0  0  0  0  0
    4.6717   -2.7029    2.2137 H   0  0  0  0  0  0  0  0  0  0  0  0
    3.8762   -2.3120    3.7149 H   0  0  0  0  0  0  0  0  0  0  0  0
  1  2  1  0  0  0  0
  1  3  2  0  0  0  0
  2  4  2  0  0  0  0
  3  5  1  0  0  0  0
  4  6  1  0  0  0  0
  5  6  2  0  0  0  0
  5  8  1  0  0  0  0
  6  9  1  0  0  0  0
  7  9  1  0  0  0  0
  7 10  1  0  0  0  0
  7 11  1  0  0  0  0
  7 12  1  0  0  0  0
  1 13  1  0  0  0  0
  2 14  1  0  0  0  0
  3 15  1  0  0  0  0
  4 16  1  0  0  0  0
  8 17  1  0  0  0  0
  8 18  1  0  0  0  0
M  END
$$$$
frag.vs.022
  -OEChem-01121112253D

 18 18  0     0  0  0  0  0  0999 V2000
    1.8851   -1.0363   -0.1124 C   0  0  0  0  0  0  0  0  0  0  0  0
    0.8066   -0.4630    0.5610 C   0  0  0  0  0  0  0  0  0  0  0  0
    2.9210   -1.6309    0.6081 C   0  0  0  0  0  0  0  0  0  0  0  0
    1.7997   -1.0786    2.6757 C   0  0  0  0  0  0  0  0  0  0  0  0
    0.7638   -0.4841    1.9551 C   0  0  0  0  0  0  0  0  0  0  0  0
    2.8783   -1.6520    2.0022 C   0  0  0  0  0  0  0  0  0  0  0  0
    4.6230   -1.4262    3.6200 C   0  0  0  0  0  0  0  0  0  0  0  0
   -0.3262    0.0966    2.6360 N   0  0  0  0  0  0  0  0  0  0  0  0
    3.8891   -2.2323    2.7051 O   0  0  0  0  0  0  0  0  0  0  0  0
    4.6613   -0.1400    3.2117 F   0  0  0  0  0  0  0  0  0  0  0  0
    5.8949   -1.8822    3.6792 F   0  0  0  0  0  0  0  0  0  0  0  0
    4.0974   -1.4984    4.8613 F   0  0  0  0  0  0  0  0  0  0  0  0
    1.9186   -1.0197   -1.1979 H   0  0  0  0  0  0  0  0  0  0  0  0
    0.0054   -0.0012   -0.0105 H   0  0  0  0  0  0  0  0  0  0  0  0
    3.7582   -2.0764    0.0779 H   0  0  0  0  0  0  0  0  0  0  0  0
    1.7710   -1.0974    3.7627 H   0  0  0  0  0  0  0  0  0  0  0  0
   -1.0383    0.5616    2.1100 H   0  0  0  0  0  0  0  0  0  0  0  0
   -0.3220    0.1166    3.6358 H   0  0  0  0  0  0  0  0  0  0  0  0
  1  2  1  0  0  0  0
  1  3  2  0  0  0  0
  2  5  2  0  0  0  0
  3  6  1  0  0  0  0
  4  5  1  0  0  0  0
  4  6  2  0  0  0  0
  5  8  1  0  0  0  0
  6  9  1  0  0  0  0
  7  9  1  0  0  0  0
  7 10  1  0  0  0  0
  7 11  1  0  0  0  0
  7 12  1  0  0  0  0
  1 13  1  0  0  0  0
  2 14  1  0  0  0  0
  3 15  1  0  0  0  0
  4 16  1  0  0  0  0
  8 17  1  0  0  0  0
  8 18  1  0  0  0  0
M  END
$$$$
frag.vs.023
  -OEChem-01121112253D

 18 18  0     0  0  0  0  0  0999 V2000
    1.8851   -1.0363   -0.1124 C   0  0  0  0  0  0  0  0  0  0  0  0
    2.8783   -1.6520    2.0022 C   0  0  0  0  0  0  0  0  0  0  0  0
    0.8066   -0.4630    0.5610 C   0  0  0  0  0  0  0  0  0  0  0  0
    1.7997   -1.0786    2.6757 C   0  0  0  0  0  0  0  0  0  0  0  0
    2.9210   -1.6309    0.6081 C   0  0  0  0  0  0  0  0  0  0  0  0
    0.7638   -0.4841    1.9551 C   0  0  0  0  0  0  0  0  0  0  0  0
   -0.5433    1.4622    2.4194 C   0  0  0  0  0  0  0  0  0  0  0  0
    4.0115   -2.2106   -0.0728 N   0  0  0  0  0  0  0  0  0  0  0  0
   -0.2887    0.0753    2.6122 O   0  0  0  0  0  0  0  0  0  0  0  0
    0.5988    2.1346    2.1625 F   0  0  0  0  0  0  0  0  0  0  0  0
   -1.0785    1.9686    3.5536 F   0  0  0  0  0  0  0  0  0  0  0  0
   -1.4273    1.6595    1.4185 F   0  0  0  0  0  0  0  0  0  0  0  0
    1.9083   -1.0142   -1.1990 H   0  0  0  0  0  0  0  0  0  0  0  0
    3.6801   -2.1126    2.5736 H   0  0  0  0  0  0  0  0  0  0  0  0
    0.0026   -0.0014   -0.0058 H   0  0  0  0  0  0  0  0  0  0  0  0
    1.7720   -1.0982    3.7618 H   0  0  0  0  0  0  0  0  0  0  0  0
    4.0075   -2.2307   -1.0726 H   0  0  0  0  0  0  0  0  0  0  0  0
    4.7240   -2.6749    0.4533 H   0  0  0  0  0  0  0  0  0  0  0  0
  1  3  1  0  0  0  0
  1  5  2  0  0  0  0
  2  4  2  0  0  0  0
  2  5  1  0  0  0  0
  3  6  2  0  0  0  0
  4  6  1  0  0  0  0
  5  8  1  0  0  0  0
  6  9  1  0  0  0  0
  7  9  1  0  0  0  0
  7 10  1  0  0  0  0
  7 11  1  0  0  0  0
  7 12  1  0  0  0  0
  1 13  1  0  0  0  0
  2 14  1  0  0  0  0
  3 15  1  0  0  0  0
  4 16  1  0  0  0  0
  8 17  1  0  0  0  0
  8 18  1  0  0  0  0
M  END
$$$$
frag.vs.024
  -OEChem-01121112253D

 27 28  0     0  0  0  0  0  0999 V2000
   -0.4817   -1.9414   -0.1143 C   0  0  0  0  0  0  0  0  0  0  0  0
    0.5827   -0.9272   -0.0146 C   0  0  0  0  0  0  0  0  0  0  0  0
    0.3892   -0.0170    0.9439 C   0  0  0  0  0  0  0  0  0  0  0  0
   -0.8131   -0.0530    1.8216 C   0  0  0  0  0  0  0  0  0  0  0  0
    2.4678   -2.2084   -0.9371 C   0  0  0  0  0  0  0  0  0  0  0  0
    2.0061    0.0756   -1.7508 C   0  0  0  0  0  0  0  0  0  0  0  0
    2.7026   -2.6195   -2.3840 C   0  0  0  0  0  0  0  0  0  0  0  0
    2.2623   -0.4327   -3.1630 C   0  0  0  0  0  0  0  0  0  0  0  0
   -2.9282   -1.2342    2.3687 C   0  0  0  0  0  0  0  0  0  0  0  0
   -1.5435   -2.0265    0.6125 N   0  0  0  0  0  0  0  0  0  0  0  0
    1.6149   -1.0290   -0.8861 N   0  0  0  0  0  0  0  0  0  0  0  0
   -1.7141   -1.0837    1.5834 N   0  0  0  0  0  0  0  0  0  0  0  0
   -0.9616    0.8012    2.6961 O   0  0  0  0  0  0  0  0  0  0  0  0
    3.2042   -1.5111   -3.1392 O   0  0  0  0  0  0  0  0  0  0  0  0
    1.5222    1.2574    1.2236 Cl  0  0  0  0  0  0  0  0  0  0  0  0
   -0.3416   -2.7031   -0.9000 H   0  0  0  0  0  0  0  0  0  0  0  0
    2.0322   -3.0510   -0.3874 H   0  0  0  0  0  0  0  0  0  0  0  0
    3.4254   -1.9623   -0.4622 H   0  0  0  0  0  0  0  0  0  0  0  0
    2.9220    0.5230   -1.3464 H   0  0  0  0  0  0  0  0  0  0  0  0
    1.2407    0.8599   -1.7819 H   0  0  0  0  0  0  0  0  0  0  0  0
    3.4444   -3.4228   -2.4323 H   0  0  0  0  0  0  0  0  0  0  0  0
    1.7806   -2.9853   -2.8514 H   0  0  0  0  0  0  0  0  0  0  0  0
    1.3361   -0.7753   -3.6394 H   0  0  0  0  0  0  0  0  0  0  0  0
    2.6813    0.3667   -3.7817 H   0  0  0  0  0  0  0  0  0  0  0  0
   -3.7469   -0.6777    1.9051 H   0  0  0  0  0  0  0  0  0  0  0  0
   -2.7728   -0.8530    3.3816 H   0  0  0  0  0  0  0  0  0  0  0  0
   -3.2101   -2.2887    2.4305 H   0  0  0  0  0  0  0  0  0  0  0  0
  1  2  1  0  0  0  0
  1 10  2  0  0  0  0
  2  3  2  0  0  0  0
  2 11  1  0  0  0  0
  3  4  1  0  0  0  0
  3 15  1  0  0  0  0
  4 12  1  0  0  0  0
  4 13  2  0  0  0  0
  5  7  1  0  0  0  0
  5 11  1  0  0  0  0
  6  8  1  0  0  0  0
  6 11  1  0  0  0  0
  7 14  1  0  0  0  0
  8 14  1  0  0  0  0
  9 12  1  0  0  0  0
 10 12  1  0  0  0  0
  1 16  1  0  0  0  0
  5 17  1  0  0  0  0
  5 18  1  0  0  0  0
  6 19  1  0  0  0  0
  6 20  1  0  0  0  0
  7 21  1  0  0  0  0
  7 22  1  0  0  0  0
  8 23  1  0  0  0  0
  8 24  1  0  0  0  0
  9 25  1  0  0  0  0
  9 26  1  0  0  0  0
  9 27  1  0  0  0  0
M  END
$$$$
frag.vs.025
  -OEChem-01121112253D

 28 30  0     0  0  0  0  0  0999 V2000
    1.2456   -9.8046   -0.0766 C   0  0  0  0  0  0  0  0  0  0  0  0
    2.2215   -9.0855    0.6133 C   0  0  0  0  0  0  0  0  0  0  0  0
    0.2811   -9.1303   -0.8255 C   0  0  0  0  0  0  0  0  0  0  0  0
    1.8007   -0.9624   -0.7041 C   0  0  0  0  0  0  0  0  0  0  0  0
    0.5034   -0.9489   -0.1635 C   0  0  0  0  0  0  0  0  0  0  0  0
    2.2329   -7.6919    0.5545 C   0  0  0  0  0  0  0  0  0  0  0  0
    0.2925   -7.7367   -0.8843 C   0  0  0  0  0  0  0  0  0  0  0  0
    2.4748   -2.1698   -0.9262 C   0  0  0  0  0  0  0  0  0  0  0  0
   -0.1399   -2.1414    0.1632 C   0  0  0  0  0  0  0  0  0  0  0  0
    1.2684   -7.0175   -0.1943 C   0  0  0  0  0  0  0  0  0  0  0  0
    1.8353   -3.3566   -0.6012 C   0  0  0  0  0  0  0  0  0  0  0  0
    0.5534   -3.3142   -0.0690 C   0  0  0  0  0  0  0  0  0  0  0  0
    1.2798   -5.5550   -0.2563 C   0  0  0  0  0  0  0  0  0  0  0  0
    2.2634   -4.7521   -0.7142 C   0  0  0  0  0  0  0  0  0  0  0  0
    0.1438   -4.6888    0.1716 C   0  0  0  0  0  0  0  0  0  0  0  0
    3.4771   -5.0623   -1.2365 N   0  0  0  0  0  0  0  0  0  0  0  0
   -0.9176   -5.0422    0.6423 O   0  0  0  0  0  0  0  0  0  0  0  0
    1.2375  -10.8897   -0.0319 H   0  0  0  0  0  0  0  0  0  0  0  0
    2.9733   -9.6104    1.1955 H   0  0  0  0  0  0  0  0  0  0  0  0
   -0.4781   -9.6902   -1.3636 H   0  0  0  0  0  0  0  0  0  0  0  0
    2.2865   -0.0224   -0.9529 H   0  0  0  0  0  0  0  0  0  0  0  0
   -0.0000    0.0000    0.0002 H   0  0  0  0  0  0  0  0  0  0  0  0
    3.0000   -7.1451    1.0977 H   0  0  0  0  0  0  0  0  0  0  0  0
   -0.4660   -7.2254   -1.4723 H   0  0  0  0  0  0  0  0  0  0  0  0
    3.4757   -2.1581   -1.3448 H   0  0  0  0  0  0  0  0  0  0  0  0
   -1.1398   -2.1400    0.5808 H   0  0  0  0  0  0  0  0  0  0  0  0
    4.0760   -4.3223   -1.5438 H   0  0  0  0  0  0  0  0  0  0  0  0
    3.7452   -6.0238   -1.3025 H   0  0  0  0  0  0  0  0  0  0  0  0
  1  2  1  0  0  0  0
  1  3  2  0  0  0  0
  2  6  2  0  0  0  0
  3  7  1  0  0  0  0
  4  5  1  0  0  0  0
  4  8  2  0  0  0  0
  5  9  2  0  0  0  0
  6 10  1  0  0  0  0
  7 10  2  0  0  0  0
  8 11  1  0  0  0  0
  9 12  1  0  0  0  0
 10 13  1  0  0  0  0
 11 12  2  0  0  0  0
 11 14  1  0  0  0  0
 12 15  1  0  0  0  0
 13 14  2  0  0  0  0
 13 15  1  0  0  0  0
 14 16  1  0  0  0  0
 15 17  2  0  0  0  0
  1 18  1  0  0  0  0
  2 19  1  0  0  0  0
  3 20  1  0  0  0  0
  4 21  1  0  0  0  0
  5 22  1  0  0  0  0
  6 23  1  0  0  0  0
  7 24  1  0  0  0  0
  8 25  1  0  0  0  0
  9 26  1  0  0  0  0
 16 27  1  0  0  0  0
 16 28  1  0  0  0  0
M  END
$$$$
frag.vs.026
  -OEChem-01121112253D

 22 24  0     0  0  0  0  0  0999 V2000
    3.0652   -0.4440    0.7190 C   0  0  0  0  0  0  0  0  0  0  0  0
    2.0572   -1.4069    0.6691 C   0  0  0  0  0  0  0  0  0  0  0  0
    1.4918    1.3116    0.0930 C   0  0  0  0  0  0  0  0  0  0  0  0
    0.4839    0.3640    0.0404 C   0  0  0  0  0  0  0  0  0  0  0  0
    2.7855    0.9024    0.4337 C   0  0  0  0  0  0  0  0  0  0  0  0
    0.7816   -0.9889    0.3306 C   0  0  0  0  0  0  0  0  0  0  0  0
   -1.6138   -0.5619   -0.2447 C   0  0  0  0  0  0  0  0  0  0  0  0
   -3.0100    1.0266   -0.8053 C   0  0  0  0  0  0  0  0  0  0  0  0
   -1.6187    1.6954   -0.6253 C   0  0  0  0  0  0  0  0  0  0  0  0
   -2.8780   -0.4544   -0.5285 N   0  0  0  0  0  0  0  0  0  0  0  0
   -0.8372    0.5547   -0.2693 N   0  0  0  0  0  0  0  0  0  0  0  0
    3.8266    1.8559    0.4920 N   0  0  0  0  0  0  0  0  0  0  0  0
   -0.7075   -1.9985    0.1874 S   0  0  0  0  0  0  0  0  0  0  0  0
    4.0758   -0.7478    0.9828 H   0  0  0  0  0  0  0  0  0  0  0  0
    2.2759   -2.4460    0.8892 H   0  0  0  0  0  0  0  0  0  0  0  0
    1.2829    2.3546   -0.1273 H   0  0  0  0  0  0  0  0  0  0  0  0
   -3.7399    1.4564   -0.1107 H   0  0  0  0  0  0  0  0  0  0  0  0
   -3.3787    1.1676   -1.8269 H   0  0  0  0  0  0  0  0  0  0  0  0
   -1.2799    2.1561   -1.5585 H   0  0  0  0  0  0  0  0  0  0  0  0
   -1.6429    2.4471    0.1697 H   0  0  0  0  0  0  0  0  0  0  0  0
    4.7366    1.5638    0.7816 H   0  0  0  0  0  0  0  0  0  0  0  0
    3.6121    2.8185    0.3344 H   0  0  0  0  0  0  0  0  0  0  0  0
  1  2  1  0  0  0  0
  1  5  2  0  0  0  0
  2  6  2  0  0  0  0
  3  4  2  0  0  0  0
  3  5  1  0  0  0  0
  4  6  1  0  0  0  0
  4 11  1  0  0  0  0
  5 12  1  0  0  0  0
  6 13  1  0  0  0  0
  7 10  2  0  0  0  0
  7 11  1  0  0  0  0
  7 13  1  0  0  0  0
  8  9  1  0  0  0  0
  8 10  1  0  0  0  0
  9 11  1  0  0  0  0
  1 14  1  0  0  0  0
  2 15  1  0  0  0  0
  3 16  1  0  0  0  0
  8 17  1  0  0  0  0
  8 18  1  0  0  0  0
  9 19  1  0  0  0  0
  9 20  1  0  0  0  0
 12 21  1  0  0  0  0
 12 22  1  0  0  0  0
M  END
$$$$
frag.vs.027
  -OEChem-01121112253D

 21 22  0     0  0  0  0  0  0999 V2000
    1.8481   -1.0827   -0.2186 C   0  0  0  0  0  0  0  0  0  0  0  0
    0.7507   -0.6074    0.4969 C   0  0  0  0  0  0  0  0  0  0  0  0
    2.8113   -1.8675    0.4175 C   0  0  0  0  0  0  0  0  0  0  0  0
    0.6153   -0.9142    1.8503 C   0  0  0  0  0  0  0  0  0  0  0  0
    2.6834   -2.1760    1.7771 C   0  0  0  0  0  0  0  0  0  0  0  0
    1.5828   -1.6918    2.4917 C   0  0  0  0  0  0  0  0  0  0  0  0
    3.6722   -3.0104    2.4461 C   0  0  0  0  0  0  0  0  0  0  0  0
    3.5392   -3.1793    3.7635 C   0  0  0  0  0  0  0  0  0  0  0  0
    4.5318   -4.0071    4.4515 C   0  0  0  0  0  0  0  0  0  0  0  0
    2.4352   -2.5635    4.5623 C   0  0  0  0  0  0  0  0  0  0  0  0
    5.4731   -4.5542    3.9051 O   0  0  0  0  0  0  0  0  0  0  0  0
    1.3658   -1.9615    3.8154 O   0  0  0  0  0  0  0  0  0  0  0  0
    4.2396   -4.0653    5.7678 O   0  0  0  0  0  0  0  0  0  0  0  0
    1.9521   -0.8463   -1.2736 H   0  0  0  0  0  0  0  0  0  0  0  0
    0.0002    0.0001   -0.0002 H   0  0  0  0  0  0  0  0  0  0  0  0
    3.6570   -2.2343   -0.1593 H   0  0  0  0  0  0  0  0  0  0  0  0
   -0.2455   -0.5425    2.3999 H   0  0  0  0  0  0  0  0  0  0  0  0
    4.4758   -3.4522    1.8682 H   0  0  0  0  0  0  0  0  0  0  0  0
    1.9739   -3.3272    5.1987 H   0  0  0  0  0  0  0  0  0  0  0  0
    2.8459   -1.7921    5.2242 H   0  0  0  0  0  0  0  0  0  0  0  0
    4.8847   -4.6133    6.2636 H   0  0  0  0  0  0  0  0  0  0  0  0
  1  2  1  0  0  0  0
  1  3  2  0  0  0  0
  2  4  2  0  0  0  0
  3  5  1  0  0  0  0
  4  6  1  0  0  0  0
  5  6  2  0  0  0  0
  5  7  1  0  0  0  0
  6 12  1  0  0  0  0
  7  8  2  0  0  0  0
  8  9  1  0  0  0  0
  8 10  1  0  0  0  0
  9 11  2  0  0  0  0
  9 13  1  0  0  0  0
 10 12  1  0  0  0  0
  1 14  1  0  0  0  0
  2 15  1  0  0  0  0
  3 16  1  0  0  0  0
  4 17  1  0  0  0  0
  7 18  1  0  0  0  0
 10 19  1  0  0  0  0
 10 20  1  0  0  0  0
 13 21  1  0  0  0  0
M  END
$$$$
frag.vs.028
  -OEChem-01121112253D

 27 28  0     0  0  0  0  0  0999 V2000
    0.3087    2.1269    0.1341 C   0  0  0  0  0  0  0  0  0  0  0  0
   -0.2931    3.3804    0.2415 C   0  0  0  0  0  0  0  0  0  0  0  0
   -0.4748    0.9734    0.0838 C   0  0  0  0  0  0  0  0  0  0  0  0
   -1.6862    3.4722    0.2981 C   0  0  0  0  0  0  0  0  0  0  0  0
   -2.4863    2.3145    0.2481 C   0  0  0  0  0  0  0  0  0  0  0  0
   -1.8668    1.0655    0.1405 C   0  0  0  0  0  0  0  0  0  0  0  0
   -4.4850    3.6504    0.4098 C   0  0  0  0  0  0  0  0  0  0  0  0
   -2.3467    4.8026    0.4124 C   0  0  0  0  0  0  0  0  0  0  0  0
   -3.8363    4.8187    0.4664 C   0  0  0  0  0  0  0  0  0  0  0  0
   -4.6259    6.0455    0.5780 C   0  0  0  0  0  0  0  0  0  0  0  0
   -3.6169    9.1469    2.2250 C   0  0  0  0  0  0  0  0  0  0  0  0
   -4.5457    8.2337    1.4535 C   0  0  0  0  0  0  0  0  0  0  0  0
   -3.8806    2.4286    0.3050 N   0  0  0  0  0  0  0  0  0  0  0  0
   -1.6922    5.8363    0.4601 O   0  0  0  0  0  0  0  0  0  0  0  0
   -5.7504    6.1720    0.1166 O   0  0  0  0  0  0  0  0  0  0  0  0
   -3.9025    6.9697    1.2605 O   0  0  0  0  0  0  0  0  0  0  0  0
   -2.6035   -0.0535    0.0890 F   0  0  0  0  0  0  0  0  0  0  0  0
    1.3913    2.0480    0.0891 H   0  0  0  0  0  0  0  0  0  0  0  0
    0.3344    4.2661    0.2802 H   0  0  0  0  0  0  0  0  0  0  0  0
   -0.0002   -0.0000    0.0006 H   0  0  0  0  0  0  0  0  0  0  0  0
   -5.5662    3.5755    0.4435 H   0  0  0  0  0  0  0  0  0  0  0  0
   -3.3784    8.7235    3.2046 H   0  0  0  0  0  0  0  0  0  0  0  0
   -2.6852    9.3061    1.6722 H   0  0  0  0  0  0  0  0  0  0  0  0
   -4.0746   10.1314    2.3676 H   0  0  0  0  0  0  0  0  0  0  0  0
   -4.7803    8.6629    0.4749 H   0  0  0  0  0  0  0  0  0  0  0  0
   -5.4757    8.0750    2.0076 H   0  0  0  0  0  0  0  0  0  0  0  0
   -4.4572    1.5989    0.2693 H   0  0  0  0  0  0  0  0  0  0  0  0
  1  2  1  0  0  0  0
  1  3  2  0  0  0  0
  2  4  2  0  0  0  0
  3  6  1  0  0  0  0
  4  5  1  0  0  0  0
  4  8  1  0  0  0  0
  5  6  2  0  0  0  0
  5 13  1  0  0  0  0
  6 17  1  0  0  0  0
  7  9  2  0  0  0  0
  7 13  1  0  0  0  0
  8  9  1  0  0  0  0
  8 14  2  0  0  0  0
  9 10  1  0  0  0  0
 10 15  2  0  0  0  0
 10 16  1  0  0  0  0
 11 12  1  0  0  0  0
 12 16  1  0  0  0  0
  1 18  1  0  0  0  0
  2 19  1  0  0  0  0
  3 20  1  0  0  0  0
  7 21  1  0  0  0  0
 11 22  1  0  0  0  0
 11 23  1  0  0  0  0
 11 24  1  0  0  0  0
 12 25  1  0  0  0  0
 12 26  1  0  0  0  0
 13 27  1  0  0  0  0
M  END
$$$$
frag.vs.029
  -OEChem-01121112253D

 31 32  0     0  0  0  0  0  0999 V2000
    1.0682   -2.0321    8.7684 C   0  0  0  0  0  0  0  0  0  0  0  0
    2.2006   -1.4698    8.1795 C   0  0  0  0  0  0  0  0  0  0  0  0
   -0.0589   -2.3045    7.9930 C   0  0  0  0  0  0  0  0  0  0  0  0
    2.2060   -1.1797    6.8151 C   0  0  0  0  0  0  0  0  0  0  0  0
   -0.0535   -2.0144    6.6287 C   0  0  0  0  0  0  0  0  0  0  0  0
    1.0789   -1.4520    6.0397 C   0  0  0  0  0  0  0  0  0  0  0  0
    1.0847   -1.1430    4.5869 C   0  0  0  0  0  0  0  0  0  0  0  0
    1.0261   -0.5431    1.9003 C   0  0  0  0  0  0  0  0  0  0  0  0
    2.1576   -0.8952    2.5593 C   0  0  0  0  0  0  0  0  0  0  0  0
   -0.2499   -0.4887    2.6822 C   0  0  0  0  0  0  0  0  0  0  0  0
    0.9761   -0.1933    0.4652 C   0  0  0  0  0  0  0  0  0  0  0  0
   -0.0092   -0.8532   -1.5599 C   0  0  0  0  0  0  0  0  0  0  0  0
    4.6207    0.2179    2.6555 C   0  0  0  0  0  0  0  0  0  0  0  0
    2.1897   -1.1835    3.9126 N   0  0  0  0  0  0  0  0  0  0  0  0
   -0.1252   -0.8059    4.0154 N   0  0  0  0  0  0  0  0  0  0  0  0
   -1.3164   -0.1766    2.1591 O   0  0  0  0  0  0  0  0  0  0  0  0
    1.6007    0.7307   -0.0143 O   0  0  0  0  0  0  0  0  0  0  0  0
    0.1443   -1.0635   -0.1525 O   0  0  0  0  0  0  0  0  0  0  0  0
    3.7088   -1.0163    1.7123 S   0  0  0  0  0  0  0  0  0  0  0  0
    1.0640   -2.2579    9.8307 H   0  0  0  0  0  0  0  0  0  0  0  0
    3.0780   -1.2576    8.7834 H   0  0  0  0  0  0  0  0  0  0  0  0
   -0.9406   -2.7426    8.4515 H   0  0  0  0  0  0  0  0  0  0  0  0
    3.0939   -0.7416    6.3664 H   0  0  0  0  0  0  0  0  0  0  0  0
   -0.9375   -2.2308    6.0342 H   0  0  0  0  0  0  0  0  0  0  0  0
   -0.6950   -1.5996   -1.9680 H   0  0  0  0  0  0  0  0  0  0  0  0
    0.9649   -0.9315   -2.0493 H   0  0  0  0  0  0  0  0  0  0  0  0
   -0.4196    0.1455   -1.7274 H   0  0  0  0  0  0  0  0  0  0  0  0
    5.6416    0.2977    2.2741 H   0  0  0  0  0  0  0  0  0  0  0  0
    4.6554   -0.0711    3.7089 H   0  0  0  0  0  0  0  0  0  0  0  0
    4.1293    1.1899    2.5676 H   0  0  0  0  0  0  0  0  0  0  0  0
   -0.9556   -0.7912    4.6013 H   0  0  0  0  0  0  0  0  0  0  0  0
  1  2  1  0  0  0  0
  1  3  2  0  0  0  0
  2  4  2  0  0  0  0
  3  5  1  0  0  0  0
  4  6  1  0  0  0  0
  5  6  2  0  0  0  0
  6  7  1  0  0  0  0
  7 14  2  0  0  0  0
  7 15  1  0  0  0  0
  8  9  2  0  0  0  0
  8 10  1  0  0  0  0
  8 11  1  0  0  0  0
  9 14  1  0  0  0  0
  9 19  1  0  0  0  0
 10 15  1  0  0  0  0
 10 16  2  0  0  0  0
 11 17  2  0  0  0  0
 11 18  1  0  0  0  0
 12 18  1  0  0  0  0
 13 19  1  0  0  0  0
  1 20  1  0  0  0  0
  2 21  1  0  0  0  0
  3 22  1  0  0  0  0
  4 23  1  0  0  0  0
  5 24  1  0  0  0  0
 12 25  1  0  0  0  0
 12 26  1  0  0  0  0
 12 27  1  0  0  0  0
 13 28  1  0  0  0  0
 13 29  1  0  0  0  0
 13 30  1  0  0  0  0
 15 31  1  0  0  0  0
M  END
$$$$
frag.vs.030
  -OEChem-01121112253D

 26 27  0     0  0  0  0  0  0999 V2000
    0.1159    0.2640    1.6563 C   0  0  0  0  0  0  0  0  0  0  0  0
   -0.8816    0.2028    0.7472 C   0  0  0  0  0  0  0  0  0  0  0  0
    0.9609   -0.1885   -0.6198 C   0  0  0  0  0  0  0  0  0  0  0  0
    0.0165    0.5096    3.0877 C   0  0  0  0  0  0  0  0  0  0  0  0
    0.2891   -0.4687   -2.6738 C   0  0  0  0  0  0  0  0  0  0  0  0
   -0.9781   -0.2120   -1.8120 C   0  0  0  0  0  0  0  0  0  0  0  0
   -2.3465    0.3689    0.9626 C   0  0  0  0  0  0  0  0  0  0  0  0
   -2.5256    2.5118    4.7939 C   0  0  0  0  0  0  0  0  0  0  0  0
   -1.2960    1.6336    4.7011 C   0  0  0  0  0  0  0  0  0  0  0  0
    1.5023   -0.4289   -1.7748 N   0  0  0  0  0  0  0  0  0  0  0  0
   -0.3891   -0.0510   -0.5209 N   0  0  0  0  0  0  0  0  0  0  0  0
    0.8003    0.0593    3.9162 O   0  0  0  0  0  0  0  0  0  0  0  0
   -1.0634    1.3005    3.3287 O   0  0  0  0  0  0  0  0  0  0  0  0
    1.7105    0.0038    0.9476 S   0  0  0  0  0  0  0  0  0  0  0  0
    0.2357   -1.4486   -3.1602 H   0  0  0  0  0  0  0  0  0  0  0  0
    0.3926    0.2977   -3.4494 H   0  0  0  0  0  0  0  0  0  0  0  0
   -1.5022    0.6901   -2.1427 H   0  0  0  0  0  0  0  0  0  0  0  0
   -1.6601   -1.0672   -1.8515 H   0  0  0  0  0  0  0  0  0  0  0  0
   -2.6233    1.4181    0.8501 H   0  0  0  0  0  0  0  0  0  0  0  0
   -2.6168    0.0340    1.9655 H   0  0  0  0  0  0  0  0  0  0  0  0
   -2.9004   -0.2265    0.2348 H   0  0  0  0  0  0  0  0  0  0  0  0
   -2.3874    3.4377    4.2287 H   0  0  0  0  0  0  0  0  0  0  0  0
   -3.4046    1.9876    4.4044 H   0  0  0  0  0  0  0  0  0  0  0  0
   -2.7419    2.7638    5.8374 H   0  0  0  0  0  0  0  0  0  0  0  0
   -1.4408    0.7094    5.2685 H   0  0  0  0  0  0  0  0  0  0  0  0
   -0.4187    2.1591    5.0899 H   0  0  0  0  0  0  0  0  0  0  0  0
  1  2  2  0  0  0  0
  1  4  1  0  0  0  0
  1 14  1  0  0  0  0
  2  7  1  0  0  0  0
  2 11  1  0  0  0  0
  3 10  2  0  0  0  0
  3 11  1  0  0  0  0
  3 14  1  0  0  0  0
  4 12  2  0  0  0  0
  4 13  1  0  0  0  0
  5  6  1  0  0  0  0
  5 10  1  0  0  0  0
  6 11  1  0  0  0  0
  8  9  1  0  0  0  0
  9 13  1  0  0  0  0
  5 15  1  0  0  0  0
  5 16  1  0  0  0  0
  6 17  1  0  0  0  0
  6 18  1  0  0  0  0
  7 19  1  0  0  0  0
  7 20  1  0  0  0  0
  7 21  1  0  0  0  0
  8 22  1  0  0  0  0
  8 23  1  0  0  0  0
  8 24  1  0  0  0  0
  9 25  1  0  0  0  0
  9 26  1  0  0  0  0
M  END
$$$$
frag.vs.031
  -OEChem-01121112253D

 26 27  0     0  0  0  0  0  0999 V2000
    0.8147    1.5247   -1.2866 C   0  0  0  0  0  0  0  0  0  0  0  0
   -0.1899    0.6646   -0.8377 C   0  0  0  0  0  0  0  0  0  0  0  0
    0.5790    2.3836   -2.3641 C   0  0  0  0  0  0  0  0  0  0  0  0
   -1.4345    0.6591   -1.4635 C   0  0  0  0  0  0  0  0  0  0  0  0
   -0.6661    2.3846   -2.9975 C   0  0  0  0  0  0  0  0  0  0  0  0
   -1.6550    1.5207   -2.5363 C   0  0  0  0  0  0  0  0  0  0  0  0
   -0.9631    3.2576   -4.1223 C   0  0  0  0  0  0  0  0  0  0  0  0
   -2.1693    3.2227   -4.6962 C   0  0  0  0  0  0  0  0  0  0  0  0
   -3.2374    2.3153   -4.2264 C   0  0  0  0  0  0  0  0  0  0  0  0
   -2.3714    4.1394   -5.8254 C   0  0  0  0  0  0  0  0  0  0  0  0
   -4.5784    3.6154   -8.6857 C   0  0  0  0  0  0  0  0  0  0  0  0
   -3.5712    4.3634   -7.8385 C   0  0  0  0  0  0  0  0  0  0  0  0
   -4.3436    2.2848   -4.7543 O   0  0  0  0  0  0  0  0  0  0  0  0
   -1.8018    5.2121   -5.9311 O   0  0  0  0  0  0  0  0  0  0  0  0
   -2.9239    1.4918   -3.1484 O   0  0  0  0  0  0  0  0  0  0  0  0
   -3.2676    3.5831   -6.6775 O   0  0  0  0  0  0  0  0  0  0  0  0
    1.7841    1.5263   -0.7963 H   0  0  0  0  0  0  0  0  0  0  0  0
   -0.0002    0.0000   -0.0000 H   0  0  0  0  0  0  0  0  0  0  0  0
    1.3747    3.0448   -2.6980 H   0  0  0  0  0  0  0  0  0  0  0  0
   -2.2166   -0.0087   -1.1159 H   0  0  0  0  0  0  0  0  0  0  0  0
   -0.1766    3.9227   -4.4653 H   0  0  0  0  0  0  0  0  0  0  0  0
   -4.1769    2.6509   -9.0088 H   0  0  0  0  0  0  0  0  0  0  0  0
   -5.5029    3.4436   -8.1247 H   0  0  0  0  0  0  0  0  0  0  0  0
   -4.8477    4.2005   -9.5714 H   0  0  0  0  0  0  0  0  0  0  0  0
   -3.9790    5.3270   -7.5187 H   0  0  0  0  0  0  0  0  0  0  0  0
   -2.6479    4.5335   -8.4002 H   0  0  0  0  0  0  0  0  0  0  0  0
  1  2  1  0  0  0  0
  1  3  2  0  0  0  0
  2  4  2  0  0  0  0
  3  5  1  0  0  0  0
  4  6  1  0  0  0  0
  5  6  2  0  0  0  0
  5  7  1  0  0  0  0
  6 15  1  0  0  0  0
  7  8  2  0  0  0  0
  8  9  1  0  0  0  0
  8 10  1  0  0  0  0
  9 13  2  0  0  0  0
  9 15  1  0  0  0  0
 10 14  2  0  0  0  0
 10 16  1  0  0  0  0
 11 12  1  0  0  0  0
 12 16  1  0  0  0  0
  1 17  1  0  0  0  0
  2 18  1  0  0  0  0
  3 19  1  0  0  0  0
  4 20  1  0  0  0  0
  7 21  1  0  0  0  0
 11 22  1  0  0  0  0
 11 23  1  0  0  0  0
 11 24  1  0  0  0  0
 12 25  1  0  0  0  0
 12 26  1  0  0  0  0
M  END
$$$$
frag.vs.032
  -OEChem-01121112253D

 33 35  0     0  0  0  0  0  0999 V2000
   -5.9787   -0.8925   -4.5863 C   0  0  0  0  0  0  0  0  0  0  0  0
   -0.7034   -0.6281   -0.5410 C   0  0  0  0  0  0  0  0  0  0  0  0
   -0.5838   -2.0305   -0.4545 C   0  0  0  0  0  0  0  0  0  0  0  0
   -1.7092   -0.0341   -1.3091 C   0  0  0  0  0  0  0  0  0  0  0  0
   -1.4662   -2.8768   -1.1330 C   0  0  0  0  0  0  0  0  0  0  0  0
   -2.5762   -0.8710   -1.9752 C   0  0  0  0  0  0  0  0  0  0  0  0
   -2.4540   -2.2784   -1.8865 C   0  0  0  0  0  0  0  0  0  0  0  0
   -5.2603   -1.9915   -4.0282 C   0  0  0  0  0  0  0  0  0  0  0  0
   -5.6505   -3.3775   -4.3276 C   0  0  0  0  0  0  0  0  0  0  0  0
   -4.9459   -4.4195   -3.8219 C   0  0  0  0  0  0  0  0  0  0  0  0
   -4.2089   -1.7572   -3.2271 C   0  0  0  0  0  0  0  0  0  0  0  0
   -3.7678   -4.1599   -2.9040 C   0  0  0  0  0  0  0  0  0  0  0  0
   -6.8704   -3.5482   -5.2036 C   0  0  0  0  0  0  0  0  0  0  0  0
   -5.2057   -5.8766   -4.0947 C   0  0  0  0  0  0  0  0  0  0  0  0
   -5.8987   -6.5577   -2.9280 C   0  0  0  0  0  0  0  0  0  0  0  0
   -6.5627    0.0012   -5.0403 N   0  0  0  0  0  0  0  0  0  0  0  0
   -3.6572   -0.5622   -2.8029 N   0  0  0  0  0  0  0  0  0  0  0  0
   -3.4918   -2.8267   -2.6841 N   0  0  0  0  0  0  0  0  0  0  0  0
   -3.1451   -5.1024   -2.4186 O   0  0  0  0  0  0  0  0  0  0  0  0
   -7.1297   -5.9034   -2.6499 O   0  0  0  0  0  0  0  0  0  0  0  0
    0.0001    0.0001   -0.0003 H   0  0  0  0  0  0  0  0  0  0  0  0
    0.2103   -2.4595    0.1518 H   0  0  0  0  0  0  0  0  0  0  0  0
   -1.7962    1.0445   -1.3721 H   0  0  0  0  0  0  0  0  0  0  0  0
   -1.3577   -3.9510   -1.0541 H   0  0  0  0  0  0  0  0  0  0  0  0
   -6.5570   -3.5758   -6.2408 H   0  0  0  0  0  0  0  0  0  0  0  0
   -7.5419   -2.7132   -5.0383 H   0  0  0  0  0  0  0  0  0  0  0  0
   -7.3668   -4.4747   -4.9383 H   0  0  0  0  0  0  0  0  0  0  0  0
   -4.2454   -6.3551   -4.2974 H   0  0  0  0  0  0  0  0  0  0  0  0
   -5.8254   -5.9439   -4.9905 H   0  0  0  0  0  0  0  0  0  0  0  0
   -5.2678   -6.4828   -2.0365 H   0  0  0  0  0  0  0  0  0  0  0  0
   -6.0961   -7.6159   -3.1293 H   0  0  0  0  0  0  0  0  0  0  0  0
   -3.9913    0.3522   -3.0520 H   0  0  0  0  0  0  0  0  0  0  0  0
   -7.5329   -6.3721   -1.9015 H   0  0  0  0  0  0  0  0  0  0  0  0
  1  8  1  0  0  0  0
  1 16  3  0  0  0  0
  2  3  1  0  0  0  0
  2  4  2  0  0  0  0
  3  5  2  0  0  0  0
  4  6  1  0  0  0  0
  5  7  1  0  0  0  0
  6  7  2  0  0  0  0
  6 17  1  0  0  0  0
  7 18  1  0  0  0  0
  8  9  1  0  0  0  0
  8 11  2  0  0  0  0
  9 10  2  0  0  0  0
  9 13  1  0  0  0  0
 10 12  1  0  0  0  0
 10 14  1  0  0  0  0
 11 17  1  0  0  0  0
 11 18  1  0  0  0  0
 12 18  1  0  0  0  0
 12 19  2  0  0  0  0
 14 15  1  0  0  0  0
 15 20  1  0  0  0  0
  2 21  1  0  0  0  0
  3 22  1  0  0  0  0
  4 23  1  0  0  0  0
  5 24  1  0  0  0  0
 13 25  1  0  0  0  0
 13 26  1  0  0  0  0
 13 27  1  0  0  0  0
 14 28  1  0  0  0  0
 14 29  1  0  0  0  0
 15 30  1  0  0  0  0
 15 31  1  0  0  0  0
 17 32  1  0  0  0  0
 20 33  1  0  0  0  0
M  END
$$$$
frag.vs.033
  -OEChem-01121112253D

 22 23  0     0  0  0  0  0  0999 V2000
    0.3893   -1.7738    1.1476 C   0  0  0  0  0  0  0  0  0  0  0  0
    0.5084   -0.9591    0.0314 C   0  0  0  0  0  0  0  0  0  0  0  0
    1.0447   -3.0045    1.1833 C   0  0  0  0  0  0  0  0  0  0  0  0
    1.2747   -1.3782   -1.0554 C   0  0  0  0  0  0  0  0  0  0  0  0
    1.8365   -3.4385    0.1044 C   0  0  0  0  0  0  0  0  0  0  0  0
    1.9397   -2.6187   -1.0393 C   0  0  0  0  0  0  0  0  0  0  0  0
    3.2369   -5.1315   -0.9545 C   0  0  0  0  0  0  0  0  0  0  0  0
    2.5481   -4.7266    0.1143 C   0  0  0  0  0  0  0  0  0  0  0  0
    3.3463   -4.3077   -2.1807 C   0  0  0  0  0  0  0  0  0  0  0  0
    2.8034   -2.2144   -3.3481 C   0  0  0  0  0  0  0  0  0  0  0  0
    2.7048   -3.0691   -2.1674 N   0  0  0  0  0  0  0  0  0  0  0  0
    3.9966   -4.7596   -3.1239 O   0  0  0  0  0  0  0  0  0  0  0  0
    2.4481   -5.4792    1.2643 O   0  0  0  0  0  0  0  0  0  0  0  0
   -0.2110   -1.4540    1.9942 H   0  0  0  0  0  0  0  0  0  0  0  0
    0.0014    0.0008    0.0007 H   0  0  0  0  0  0  0  0  0  0  0  0
    0.9326   -3.6188    2.0741 H   0  0  0  0  0  0  0  0  0  0  0  0
    1.3290   -0.7106   -1.9107 H   0  0  0  0  0  0  0  0  0  0  0  0
    3.7562   -6.0847   -0.9587 H   0  0  0  0  0  0  0  0  0  0  0  0
    3.6674   -1.5505   -3.2603 H   0  0  0  0  0  0  0  0  0  0  0  0
    1.9009   -1.6057   -3.4506 H   0  0  0  0  0  0  0  0  0  0  0  0
    2.9186   -2.8246   -4.2479 H   0  0  0  0  0  0  0  0  0  0  0  0
    2.9471   -6.2972    1.1660 H   0  0  0  0  0  0  0  0  0  0  0  0
  1  2  1  0  0  0  0
  1  3  2  0  0  0  0
  2  4  2  0  0  0  0
  3  5  1  0  0  0  0
  4  6  1  0  0  0  0
  5  6  2  0  0  0  0
  5  8  1  0  0  0  0
  6 11  1  0  0  0  0
  7  8  2  0  0  0  0
  7  9  1  0  0  0  0
  8 13  1  0  0  0  0
  9 11  1  0  0  0  0
  9 12  2  0  0  0  0
 10 11  1  0  0  0  0
  1 14  1  0  0  0  0
  2 15  1  0  0  0  0
  3 16  1  0  0  0  0
  4 17  1  0  0  0  0
  7 18  1  0  0  0  0
 10 19  1  0  0  0  0
 10 20  1  0  0  0  0
 10 21  1  0  0  0  0
 13 22  1  0  0  0  0
M  END
$$$$
frag.vs.034
  -OEChem-01121112253D

 21 21  0     0  0  0  0  0  0999 V2000
    1.8851   -1.0363   -0.1124 C   0  0  0  0  0  0  0  0  0  0  0  0
    0.8066   -0.4630    0.5610 C   0  0  0  0  0  0  0  0  0  0  0  0
    2.8783   -1.6520    2.0022 C   0  0  0  0  0  0  0  0  0  0  0  0
    1.7997   -1.0786    2.6757 C   0  0  0  0  0  0  0  0  0  0  0  0
    2.9210   -1.6309    0.6081 C   0  0  0  0  0  0  0  0  0  0  0  0
    0.7638   -0.4841    1.9551 C   0  0  0  0  0  0  0  0  0  0  0  0
    1.7744   -1.1113    4.1312 C   0  0  0  0  0  0  0  0  0  0  0  0
    4.0748   -2.2424   -0.1121 C   0  0  0  0  0  0  0  0  0  0  0  0
    2.4505   -2.2665    4.8090 C   0  0  0  0  0  0  0  0  0  0  0  0
    1.2358   -0.2648    4.8458 O   0  0  0  0  0  0  0  0  0  0  0  0
   -0.2982    0.0820    2.5947 O   0  0  0  0  0  0  0  0  0  0  0  0
    1.9116   -1.0138   -1.1985 H   0  0  0  0  0  0  0  0  0  0  0  0
    0.0031   -0.0009   -0.0062 H   0  0  0  0  0  0  0  0  0  0  0  0
    3.6882   -2.1154    2.5612 H   0  0  0  0  0  0  0  0  0  0  0  0
    4.8662   -1.4988   -0.2667 H   0  0  0  0  0  0  0  0  0  0  0  0
    4.4949   -3.0855    0.4515 H   0  0  0  0  0  0  0  0  0  0  0  0
    3.7705   -2.6352   -1.0911 H   0  0  0  0  0  0  0  0  0  0  0  0
    3.5136   -2.0911    5.0377 H   0  0  0  0  0  0  0  0  0  0  0  0
    2.3866   -3.2038    4.2347 H   0  0  0  0  0  0  0  0  0  0  0  0
    2.0082   -2.5138    5.7905 H   0  0  0  0  0  0  0  0  0  0  0  0
   -0.9221    0.4474    1.9482 H   0  0  0  0  0  0  0  0  0  0  0  0
  1  2  2  0  0  0  0
  1  5  1  0  0  0  0
  2  6  1  0  0  0  0
  3  4  1  0  0  0  0
  3  5  2  0  0  0  0
  4  6  2  0  0  0  0
  4  7  1  0  0  0  0
  5  8  1  0  0  0  0
  6 11  1  0  0  0  0
  7  9  1  0  0  0  0
  7 10  2  0  0  0  0
  1 12  1  0  0  0  0
  2 13  1  0  0  0  0
  3 14  1  0  0  0  0
  8 15  1  0  0  0  0
  8 16  1  0  0  0  0
  8 17  1  0  0  0  0
  9 18  1  0  0  0  0
  9 19  1  0  0  0  0
  9 20  1  0  0  0  0
 11 21  1  0  0  0  0
M  END
$$$$
frag.vs.035
  -OEChem-01121112253D

 20 21  0     0  0  0  0  0  0999 V2000
    0.1298    2.0977   -0.4527 C   0  0  0  0  0  0  0  0  0  0  0  0
   -0.5469    0.8976   -0.2738 C   0  0  0  0  0  0  0  0  0  0  0  0
   -0.5812    3.2417   -0.8037 C   0  0  0  0  0  0  0  0  0  0  0  0
   -1.9323    0.8440   -0.4461 C   0  0  0  0  0  0  0  0  0  0  0  0
   -4.0902    4.2376   -1.4936 C   0  0  0  0  0  0  0  0  0  0  0  0
   -4.6804    3.0058   -1.2959 C   0  0  0  0  0  0  0  0  0  0  0  0
   -1.9747    3.1875   -0.9770 C   0  0  0  0  0  0  0  0  0  0  0  0
   -2.7151    4.3237   -1.3301 C   0  0  0  0  0  0  0  0  0  0  0  0
   -2.6683    1.9725   -0.7968 C   0  0  0  0  0  0  0  0  0  0  0  0
   -2.1000    5.6308   -1.5405 C   0  0  0  0  0  0  0  0  0  0  0  0
   -4.0027    1.8858   -0.9548 N   0  0  0  0  0  0  0  0  0  0  0  0
   -1.4608    6.2596   -0.6952 O   0  0  0  0  0  0  0  0  0  0  0  0
   -2.3063    6.1005   -2.7991 O   0  0  0  0  0  0  0  0  0  0  0  0
    1.2064    2.1431   -0.3198 H   0  0  0  0  0  0  0  0  0  0  0  0
   -0.0004   -0.0002    0.0001 H   0  0  0  0  0  0  0  0  0  0  0  0
   -0.0263    4.1670   -0.9376 H   0  0  0  0  0  0  0  0  0  0  0  0
   -2.4390   -0.1083   -0.3009 H   0  0  0  0  0  0  0  0  0  0  0  0
   -4.6908    5.0984   -1.7673 H   0  0  0  0  0  0  0  0  0  0  0  0
   -5.7519    2.8779   -1.4089 H   0  0  0  0  0  0  0  0  0  0  0  0
   -1.8958    6.9785   -2.9509 H   0  0  0  0  0  0  0  0  0  0  0  0
  1  2  1  0  0  0  0
  1  3  2  0  0  0  0
  2  4  2  0  0  0  0
  3  7  1  0  0  0  0
  4  9  1  0  0  0  0
  5  6  2  0  0  0  0
  5  8  1  0  0  0  0
  6 11  1  0  0  0  0
  7  8  2  0  0  0  0
  7  9  1  0  0  0  0
  8 10  1  0  0  0  0
  9 11  2  0  0  0  0
 10 12  2  0  0  0  0
 10 13  1  0  0  0  0
  1 14  1  0  0  0  0
  2 15  1  0  0  0  0
  3 16  1  0  0  0  0
  4 17  1  0  0  0  0
  5 18  1  0  0  0  0
  6 19  1  0  0  0  0
 13 20  1  0  0  0  0
M  END
$$$$
frag.vs.036
  -OEChem-01121112253D

 24 25  0     0  0  0  0  0  0999 V2000
    1.8853   -1.0359   -0.1124 C   0  0  0  0  0  0  0  0  0  0  0  0
    1.2273   -0.0199    0.5808 C   0  0  0  0  0  0  0  0  0  0  0  0
    2.5004   -2.0732    0.5884 C   0  0  0  0  0  0  0  0  0  0  0  0
    1.1845   -0.0413    1.9748 C   0  0  0  0  0  0  0  0  0  0  0  0
    2.4577   -2.0946    1.9825 C   0  0  0  0  0  0  0  0  0  0  0  0
    2.7445   -0.4840    4.8791 C   0  0  0  0  0  0  0  0  0  0  0  0
    0.7243   -1.7363    4.7951 C   0  0  0  0  0  0  0  0  0  0  0  0
    1.6025   -1.1831    6.8447 C   0  0  0  0  0  0  0  0  0  0  0  0
    1.7997   -1.0786    2.6757 C   0  0  0  0  0  0  0  0  0  0  0  0
    1.7549   -1.1005    4.1216 C   0  0  0  0  0  0  0  0  0  0  0  0
    2.6743   -0.5215    6.2673 C   0  0  0  0  0  0  0  0  0  0  0  0
    3.6924    0.1125    7.0865 C   0  0  0  0  0  0  0  0  0  0  0  0
    0.6223   -1.7937    6.1419 N   0  0  0  0  0  0  0  0  0  0  0  0
    4.6800    0.7223    6.6602 O   0  0  0  0  0  0  0  0  0  0  0  0
    3.4527   -0.0288    8.4198 O   0  0  0  0  0  0  0  0  0  0  0  0
    1.9170   -1.0199   -1.1979 H   0  0  0  0  0  0  0  0  0  0  0  0
    0.7469    0.7869    0.0352 H   0  0  0  0  0  0  0  0  0  0  0  0
    3.0118   -2.8654    0.0493 H   0  0  0  0  0  0  0  0  0  0  0  0
    0.6674    0.7579    2.5007 H   0  0  0  0  0  0  0  0  0  0  0  0
    2.9412   -2.9100    2.5152 H   0  0  0  0  0  0  0  0  0  0  0  0
    3.5719    0.0271    4.3914 H   0  0  0  0  0  0  0  0  0  0  0  0
   -0.0780   -2.2384    4.2619 H   0  0  0  0  0  0  0  0  0  0  0  0
    1.4922   -1.2449    7.9231 H   0  0  0  0  0  0  0  0  0  0  0  0
    4.1346    0.3970    8.9821 H   0  0  0  0  0  0  0  0  0  0  0  0
  1  2  1  0  0  0  0
  1  3  2  0  0  0  0
  2  4  2  0  0  0  0
  3  5  1  0  0  0  0
  4  9  1  0  0  0  0
  5  9  2  0  0  0  0
  6 10  1  0  0  0  0
  6 11  2  0  0  0  0
  7 10  2  0  0  0  0
  7 13  1  0  0  0  0
  8 11  1  0  0  0  0
  8 13  2  0  0  0  0
  9 10  1  0  0  0  0
 11 12  1  0  0  0  0
 12 14  2  0  0  0  0
 12 15  1  0  0  0  0
  1 16  1  0  0  0  0
  2 17  1  0  0  0  0
  3 18  1  0  0  0  0
  4 19  1  0  0  0  0
  5 20  1  0  0  0  0
  6 21  1  0  0  0  0
  7 22  1  0  0  0  0
  8 23  1  0  0  0  0
 15 24  1  0  0  0  0
M  END
$$$$
frag.vs.037
  -OEChem-01121112253D

 21 22  0     0  0  0  0  0  0999 V2000
   -1.0979    1.2520   -2.0841 C   0  0  0  0  0  0  0  0  0  0  0  0
   -1.1612    0.8911   -0.7072 C   0  0  0  0  0  0  0  0  0  0  0  0
    1.3879   -0.0684    1.6522 C   0  0  0  0  0  0  0  0  0  0  0  0
   -0.6317   -1.3224    1.5803 C   0  0  0  0  0  0  0  0  0  0  0  0
    0.7299   -1.5161    3.4206 C   0  0  0  0  0  0  0  0  0  0  0  0
    0.0340    0.7605   -2.6964 C   0  0  0  0  0  0  0  0  0  0  0  0
    0.2265   -0.4197    0.9733 C   0  0  0  0  0  0  0  0  0  0  0  0
    1.6520   -0.6227    2.8997 C   0  0  0  0  0  0  0  0  0  0  0  0
   -0.0753    0.1371   -0.3196 C   0  0  0  0  0  0  0  0  0  0  0  0
    2.8563   -0.2754    3.6338 C   0  0  0  0  0  0  0  0  0  0  0  0
   -0.4092   -1.8816    2.7908 N   0  0  0  0  0  0  0  0  0  0  0  0
    3.7306    0.5095    3.2486 O   0  0  0  0  0  0  0  0  0  0  0  0
    2.9399   -0.9156    4.8330 O   0  0  0  0  0  0  0  0  0  0  0  0
    1.0143   -0.1323   -1.6128 S   0  0  0  0  0  0  0  0  0  0  0  0
   -1.8445    1.8416   -2.5999 H   0  0  0  0  0  0  0  0  0  0  0  0
   -1.9676    1.1733   -0.0415 H   0  0  0  0  0  0  0  0  0  0  0  0
    2.0906    0.6366    1.2124 H   0  0  0  0  0  0  0  0  0  0  0  0
   -1.5556   -1.6364    1.1034 H   0  0  0  0  0  0  0  0  0  0  0  0
    0.8800   -1.9809    4.3903 H   0  0  0  0  0  0  0  0  0  0  0  0
    0.3319    0.8826   -3.7282 H   0  0  0  0  0  0  0  0  0  0  0  0
    3.7498   -0.6870    5.3372 H   0  0  0  0  0  0  0  0  0  0  0  0
  1  2  1  0  0  0  0
  1  6  2  0  0  0  0
  2  9  2  0  0  0  0
  3  7  1  0  0  0  0
  3  8  2  0  0  0  0
  4  7  2  0  0  0  0
  4 11  1  0  0  0  0
  5  8  1  0  0  0  0
  5 11  2  0  0  0  0
  6 14  1  0  0  0  0
  7  9  1  0  0  0  0
  8 10  1  0  0  0  0
  9 14  1  0  0  0  0
 10 12  2  0  0  0  0
 10 13  1  0  0  0  0
  1 15  1  0  0  0  0
  2 16  1  0  0  0  0
  3 17  1  0  0  0  0
  4 18  1  0  0  0  0
  5 19  1  0  0  0  0
  6 20  1  0  0  0  0
 13 21  1  0  0  0  0
M  END
$$$$
frag.vs.038_0
  -OEChem-01121112253D

 23 24  0     1  0  0  0  0  0999 V2000
    1.0502    1.0758   -1.5406 C   0  0  0  0  0  0  0  0  0  0  0  0
   -0.0389    0.3847   -1.0149 C   0  0  0  0  0  0  0  0  0  0  0  0
    0.9971    1.5753   -2.8423 C   0  0  0  0  0  0  0  0  0  0  0  0
   -1.1785    0.1858   -1.7929 C   0  0  0  0  0  0  0  0  0  0  0  0
   -0.1473    1.3890   -3.6301 C   0  0  0  0  0  0  0  0  0  0  0  0
   -1.2276    0.6731   -3.1018 C   0  0  0  0  0  0  0  0  0  0  0  0
   -2.4014    3.0825   -5.2008 C   0  0  0  0  0  0  0  0  0  0  0  0
   -0.1858    1.9414   -5.0280 C   0  0  0  0  0  0  0  0  0  0  0  0
   -2.2983    0.6066   -5.2078 C   0  0  0  0  0  0  0  0  0  0  0  0
   -1.5897    1.8902   -5.6212 C   0  0  1  0  0  0  0  0  0  0  0  0
   -2.2812    3.6740   -4.1382 O   0  0  0  0  0  0  0  0  0  0  0  0
   -2.3900    0.4425   -3.7887 O   0  0  0  0  0  0  0  0  0  0  0  0
   -3.2950    3.4169   -6.1636 O   0  0  0  0  0  0  0  0  0  0  0  0
    1.9395    1.2290   -0.9365 H   0  0  0  0  0  0  0  0  0  0  0  0
    0.0001   -0.0003   -0.0001 H   0  0  0  0  0  0  0  0  0  0  0  0
    1.8524    2.1176   -3.2385 H   0  0  0  0  0  0  0  0  0  0  0  0
   -2.0235   -0.3553   -1.3749 H   0  0  0  0  0  0  0  0  0  0  0  0
    0.1942    2.9703   -5.0324 H   0  0  0  0  0  0  0  0  0  0  0  0
    0.4871    1.3334   -5.6459 H   0  0  0  0  0  0  0  0  0  0  0  0
   -3.3240    0.6014   -5.5941 H   0  0  0  0  0  0  0  0  0  0  0  0
   -1.7918   -0.2719   -5.6274 H   0  0  0  0  0  0  0  0  0  0  0  0
   -1.5254    1.9392   -6.7139 H   0  0  0  0  0  0  0  0  0  0  0  0
   -3.8369    4.1933   -5.9068 H   0  0  0  0  0  0  0  0  0  0  0  0
  1  2  1  0  0  0  0
  1  3  2  0  0  0  0
  2  4  2  0  0  0  0
  3  5  1  0  0  0  0
  4  6  1  0  0  0  0
  5  6  2  0  0  0  0
  5  8  1  0  0  0  0
  6 12  1  0  0  0  0
  7 10  1  0  0  0  0
  7 11  2  0  0  0  0
  7 13  1  0  0  0  0
  8 10  1  0  0  0  0
  9 10  1  0  0  0  0
  9 12  1  0  0  0  0
  1 14  1  0  0  0  0
  2 15  1  0  0  0  0
  3 16  1  0  0  0  0
  4 17  1  0  0  0  0
  8 18  1  0  0  0  0
  8 19  1  0  0  0  0
  9 20  1  0  0  0  0
  9 21  1  0  0  0  0
 10 22  1  0  0  0  0
 13 23  1  0  0  0  0
M  END
$$$$
frag.vs.038_1
  -OEChem-01121112253D

 23 24  0     1  0  0  0  0  0999 V2000
   -0.0245    0.6403    2.0550 C   0  0  0  0  0  0  0  0  0  0  0  0
   -0.4010   -0.1789    0.9933 C   0  0  0  0  0  0  0  0  0  0  0  0
   -0.5454    0.4139    3.3294 C   0  0  0  0  0  0  0  0  0  0  0  0
   -1.2920   -1.2295    1.2068 C   0  0  0  0  0  0  0  0  0  0  0  0
   -1.4486   -0.6345    3.5537 C   0  0  0  0  0  0  0  0  0  0  0  0
   -1.8029   -1.4665    2.4859 C   0  0  0  0  0  0  0  0  0  0  0  0
   -4.4562   -1.1893    4.5788 C   0  0  0  0  0  0  0  0  0  0  0  0
   -2.0044   -0.8536    4.9333 C   0  0  0  0  0  0  0  0  0  0  0  0
   -2.8950   -2.9784    3.9374 C   0  0  0  0  0  0  0  0  0  0  0  0
   -3.1407   -1.8634    4.9406 C   0  0  2  0  0  0  0  0  0  0  0  0
   -4.5689   -0.2188    3.8448 O   0  0  0  0  0  0  0  0  0  0  0  0
   -2.6810   -2.5109    2.6016 O   0  0  0  0  0  0  0  0  0  0  0  0
   -5.4960   -1.8118    5.1860 O   0  0  0  0  0  0  0  0  0  0  0  0
    0.6715    1.4576    1.8902 H   0  0  0  0  0  0  0  0  0  0  0  0
   -0.0004    0.0004   -0.0001 H   0  0  0  0  0  0  0  0  0  0  0  0
   -0.2472    1.0645    4.1479 H   0  0  0  0  0  0  0  0  0  0  0  0
   -1.5798   -1.8643    0.3728 H   0  0  0  0  0  0  0  0  0  0  0  0
   -1.1883   -1.2321    5.5621 H   0  0  0  0  0  0  0  0  0  0  0  0
   -2.3349    0.1031    5.3565 H   0  0  0  0  0  0  0  0  0  0  0  0
   -2.0278   -3.5820    4.2340 H   0  0  0  0  0  0  0  0  0  0  0  0
   -3.7575   -3.6537    3.9022 H   0  0  0  0  0  0  0  0  0  0  0  0
   -3.2806   -2.2729    5.9323 H   0  0  0  0  0  0  0  0  0  0  0  0
   -6.3541   -1.3903    4.9664 H   0  0  0  0  0  0  0  0  0  0  0  0
  1  2  1  0  0  0  0
  1  3  2  0  0  0  0
  2  4  2  0  0  0  0
  3  5  1  0  0  0  0
  4  6  1  0  0  0  0
  5  6  2  0  0  0  0
  5  8  1  0  0  0  0
  6 12  1  0  0  0  0
  7 10  1  0  0  0  0
  7 11  2  0  0  0  0
  7 13  1  0  0  0  0
  8 10  1  0  0  0  0
  9 10  1  0  0  0  0
  9 12  1  0  0  0  0
  1 14  1  0  0  0  0
  2 15  1  0  0  0  0
  3 16  1  0  0  0  0
  4 17  1  0  0  0  0
  8 18  1  0  0  0  0
  8 19  1  0  0  0  0
  9 20  1  0  0  0  0
  9 21  1  0  0  0  0
 10 22  1  0  0  0  0
 13 23  1  0  0  0  0
M  END
$$$$
frag.vs.039_0
  -OEChem-01121112253D

 31 32  0     1  0  0  0  0  0999 V2000
    4.1393    1.2793    4.1871 C   0  0  0  0  0  0  0  0  0  0  0  0
    4.0276    1.9611    2.9754 C   0  0  0  0  0  0  0  0  0  0  0  0
    3.7052   -0.0426    4.2862 C   0  0  0  0  0  0  0  0  0  0  0  0
    3.4816    1.3211    1.8628 C   0  0  0  0  0  0  0  0  0  0  0  0
    3.1592   -0.6826    3.1736 C   0  0  0  0  0  0  0  0  0  0  0  0
    3.0474   -0.0008    1.9619 C   0  0  0  0  0  0  0  0  0  0  0  0
   -1.2088    2.2716   -0.5581 C   0  0  0  0  0  0  0  0  0  0  0  0
    0.4029   -1.5383   -0.1694 C   0  0  0  0  0  0  0  0  0  0  0  0
    0.6797    0.8283    0.1735 C   0  0  0  0  0  0  0  0  0  0  0  0
   -1.1066   -1.3247   -0.2457 C   0  0  0  0  0  0  0  0  0  0  0  0
   -0.8373    0.9823    0.0961 C   0  0  2  0  0  0  0  0  0  0  0  0
    2.4594   -0.6902    0.7648 C   0  0  0  0  0  0  0  0  0  0  0  0
    1.0113   -0.5091    0.6858 N   0  0  2  0  0  0  0  0  0  0  0  0
   -1.8135    2.3735   -1.6152 O   0  0  0  0  0  0  0  0  0  0  0  0
   -1.4007   -0.0198   -0.7469 O   0  0  0  0  0  0  0  0  0  0  0  0
   -0.7805    3.3242    0.1807 O   0  0  0  0  0  0  0  0  0  0  0  0
    4.5657    1.7774    5.0530 H   0  0  0  0  0  0  0  0  0  0  0  0
    4.3666    2.9900    2.8978 H   0  0  0  0  0  0  0  0  0  0  0  0
    3.7931   -0.5741    5.2291 H   0  0  0  0  0  0  0  0  0  0  0  0
    3.3982    1.8602    0.9228 H   0  0  0  0  0  0  0  0  0  0  0  0
    2.8235   -1.7127    3.2602 H   0  0  0  0  0  0  0  0  0  0  0  0
    0.6005   -2.5364    0.2378 H   0  0  0  0  0  0  0  0  0  0  0  0
    0.8288   -1.4929   -1.1803 H   0  0  0  0  0  0  0  0  0  0  0  0
    1.1278    0.9757   -0.8189 H   0  0  0  0  0  0  0  0  0  0  0  0
    1.0883    1.6016    0.8356 H   0  0  0  0  0  0  0  0  0  0  0  0
   -1.5520   -2.0525   -0.9314 H   0  0  0  0  0  0  0  0  0  0  0  0
   -1.5835   -1.4562    0.7333 H   0  0  0  0  0  0  0  0  0  0  0  0
   -1.3090    0.9461    1.0853 H   0  0  0  0  0  0  0  0  0  0  0  0
    2.8990   -0.3005   -0.1599 H   0  0  0  0  0  0  0  0  0  0  0  0
    2.6612   -1.7662    0.7925 H   0  0  0  0  0  0  0  0  0  0  0  0
   -1.0136    4.1820   -0.2341 H   0  0  0  0  0  0  0  0  0  0  0  0
  1  2  1  0  0  0  0
  1  3  2  0  0  0  0
  2  4  2  0  0  0  0
  3  5  1  0  0  0  0
  4  6  1  0  0  0  0
  5  6  2  0  0  0  0
  6 12  1  0  0  0  0
  7 11  1  0  0  0  0
  7 14  2  0  0  0  0
  7 16  1  0  0  0  0
  8 10  1  0  0  0  0
  8 13  1  0  0  0  0
  9 11  1  0  0  0  0
  9 13  1  0  0  0  0
 10 15  1  0  0  0  0
 11 15  1  0  0  0  0
 12 13  1  0  0  0  0
  1 17  1  0  0  0  0
  2 18  1  0  0  0  0
  3 19  1  0  0  0  0
  4 20  1  0  0  0  0
  5 21  1  0  0  0  0
  8 22  1  0  0  0  0
  8 23  1  0  0  0  0
  9 24  1  0  0  0  0
  9 25  1  0  0  0  0
 10 26  1  0  0  0  0
 10 27  1  0  0  0  0
 11 28  1  0  0  0  0
 12 29  1  0  0  0  0
 12 30  1  0  0  0  0
 16 31  1  0  0  0  0
M  END
$$$$
frag.vs.039_1
  -OEChem-01121112253D

 31 32  0     1  0  0  0  0  0999 V2000
    4.1230    2.7385    3.4346 C   0  0  0  0  0  0  0  0  0  0  0  0
    4.7039    2.1550    2.3087 C   0  0  0  0  0  0  0  0  0  0  0  0
    2.9060    2.2590    3.9193 C   0  0  0  0  0  0  0  0  0  0  0  0
    4.0679    1.0921    1.6674 C   0  0  0  0  0  0  0  0  0  0  0  0
    2.2700    1.1961    3.2780 C   0  0  0  0  0  0  0  0  0  0  0  0
    2.8509    0.6126    2.1520 C   0  0  0  0  0  0  0  0  0  0  0  0
   -2.2683    1.2683    0.4233 C   0  0  0  0  0  0  0  0  0  0  0  0
    0.9683   -1.1534   -0.5382 C   0  0  0  0  0  0  0  0  0  0  0  0
    0.0007    0.4278    0.9975 C   0  0  0  0  0  0  0  0  0  0  0  0
    0.0090   -0.6550   -1.6157 C   0  0  0  0  0  0  0  0  0  0  0  0
   -0.9297    0.8921   -0.1203 C   0  0  1  0  0  0  0  0  0  0  0  0
    2.1656   -0.5313    1.4620 C   0  0  0  0  0  0  0  0  0  0  0  0
    1.2545   -0.0721    0.4156 N   0  0  1  0  0  0  0  0  0  0  0  0
   -3.3186    0.7040    0.1550 O   0  0  0  0  0  0  0  0  0  0  0  0
   -1.2000   -0.1765   -1.0242 O   0  0  0  0  0  0  0  0  0  0  0  0
   -2.1643    2.3300    1.2594 O   0  0  0  0  0  0  0  0  0  0  0  0
    4.6191    3.5652    3.9347 H   0  0  0  0  0  0  0  0  0  0  0  0
    5.6520    2.5274    1.9319 H   0  0  0  0  0  0  0  0  0  0  0  0
    2.4540    2.7124    4.7965 H   0  0  0  0  0  0  0  0  0  0  0  0
    4.5278    0.6437    0.7907 H   0  0  0  0  0  0  0  0  0  0  0  0
    1.3220    0.8293    3.6626 H   0  0  0  0  0  0  0  0  0  0  0  0
    0.5193   -2.0098   -0.0183 H   0  0  0  0  0  0  0  0  0  0  0  0
    1.8940   -1.4935   -1.0162 H   0  0  0  0  0  0  0  0  0  0  0  0
    0.2027    1.2687    1.6723 H   0  0  0  0  0  0  0  0  0  0  0  0
   -0.4824   -0.3606    1.5913 H   0  0  0  0  0  0  0  0  0  0  0  0
    0.4594    0.1408   -2.2215 H   0  0  0  0  0  0  0  0  0  0  0  0
   -0.2532   -1.4764   -2.2903 H   0  0  0  0  0  0  0  0  0  0  0  0
   -0.5236    1.7507   -0.6683 H   0  0  0  0  0  0  0  0  0  0  0  0
    2.9004   -1.1996    1.0001 H   0  0  0  0  0  0  0  0  0  0  0  0
    1.5849   -1.1282    2.1732 H   0  0  0  0  0  0  0  0  0  0  0  0
   -3.0350    2.5942    1.6262 H   0  0  0  0  0  0  0  0  0  0  0  0
  1  2  1  0  0  0  0
  1  3  2  0  0  0  0
  2  4  2  0  0  0  0
  3  5  1  0  0  0  0
  4  6  1  0  0  0  0
  5  6  2  0  0  0  0
  6 12  1  0  0  0  0
  7 11  1  0  0  0  0
  7 14  2  0  0  0  0
  7 16  1  0  0  0  0
  8 10  1  0  0  0  0
  8 13  1  0  0  0  0
  9 11  1  0  0  0  0
  9 13  1  0  0  0  0
 10 15  1  0  0  0  0
 11 15  1  0  0  0  0
 12 13  1  0  0  0  0
  1 17  1  0  0  0  0
  2 18  1  0  0  0  0
  3 19  1  0  0  0  0
  4 20  1  0  0  0  0
  5 21  1  0  0  0  0
  8 22  1  0  0  0  0
  8 23  1  0  0  0  0
  9 24  1  0  0  0  0
  9 25  1  0  0  0  0
 10 26  1  0  0  0  0
 10 27  1  0  0  0  0
 11 28  1  0  0  0  0
 12 29  1  0  0  0  0
 12 30  1  0  0  0  0
 16 31  1  0  0  0  0
M  END
$$$$
frag.vs.040_0
  -OEChem-01121112253D

 18 18  0     1  0  0  0  0  0999 V2000
    2.2182   -1.0887    2.3924 C   0  0  0  0  0  0  0  0  0  0  0  0
    1.0076   -0.1376    0.4161 C   0  0  0  0  0  0  0  0  0  0  0  0
    3.5874   -0.5490    2.7117 C   0  0  0  0  0  0  0  0  0  0  0  0
    1.7232    1.3017    2.3142 C   0  0  0  0  0  0  0  0  0  0  0  0
    1.2161   -0.0713    1.8970 C   0  0  2  0  0  0  0  0  0  0  0  0
   -0.1965    0.8547   -1.3586 C   0  0  0  0  0  0  0  0  0  0  0  0
    1.9499   -2.2840    2.4886 O   0  0  0  0  0  0  0  0  0  0  0  0
    1.5796   -0.9286   -0.3216 O   0  0  0  0  0  0  0  0  0  0  0  0
    0.0984    0.8067    0.0410 O   0  0  0  0  0  0  0  0  0  0  0  0
    3.5278    1.1992    2.2642 S   0  0  0  0  0  0  0  0  0  0  0  0
    3.7868   -0.6586    3.7800 H   0  0  0  0  0  0  0  0  0  0  0  0
    4.3449   -1.0638    2.1171 H   0  0  0  0  0  0  0  0  0  0  0  0
    1.3684    2.1068    1.6638 H   0  0  0  0  0  0  0  0  0  0  0  0
    1.4233    1.5287    3.3426 H   0  0  0  0  0  0  0  0  0  0  0  0
    0.2500   -0.2613    2.3734 H   0  0  0  0  0  0  0  0  0  0  0  0
   -0.9313    1.6405   -1.5501 H   0  0  0  0  0  0  0  0  0  0  0  0
   -0.5887   -0.1126   -1.6825 H   0  0  0  0  0  0  0  0  0  0  0  0
    0.7217    1.0758   -1.9079 H   0  0  0  0  0  0  0  0  0  0  0  0
  1  3  1  0  0  0  0
  1  5  1  0  0  0  0
  1  7  2  0  0  0  0
  2  5  1  0  0  0  0
  2  8  2  0  0  0  0
  2  9  1  0  0  0  0
  3 10  1  0  0  0  0
  4  5  1  0  0  0  0
  4 10  1  0  0  0  0
  6  9  1  0  0  0  0
  3 11  1  0  0  0  0
  3 12  1  0  0  0  0
  4 13  1  0  0  0  0
  4 14  1  0  0  0  0
  5 15  1  0  0  0  0
  6 16  1  0  0  0  0
  6 17  1  0  0  0  0
  6 18  1  0  0  0  0
M  END
$$$$
frag.vs.040_1
  -OEChem-01121112253D

 18 18  0     1  0  0  0  0  0999 V2000
    2.9677    0.0884    0.6198 C   0  0  0  0  0  0  0  0  0  0  0  0
    0.8172   -0.5576   -0.4783 C   0  0  0  0  0  0  0  0  0  0  0  0
    3.0533    1.4221    1.3133 C   0  0  0  0  0  0  0  0  0  0  0  0
    2.0539    1.5077   -1.1469 C   0  0  0  0  0  0  0  0  0  0  0  0
    2.1648    0.0696   -0.6617 C   0  0  1  0  0  0  0  0  0  0  0  0
   -1.1622   -1.1303   -1.6348 C   0  0  0  0  0  0  0  0  0  0  0  0
    3.4832   -0.9239    1.0882 O   0  0  0  0  0  0  0  0  0  0  0  0
    0.4051   -0.9968    0.5868 O   0  0  0  0  0  0  0  0  0  0  0  0
    0.1482   -0.5559   -1.6663 O   0  0  0  0  0  0  0  0  0  0  0  0
    2.0149    2.5339    0.3417 S   0  0  0  0  0  0  0  0  0  0  0  0
    2.6689    1.3431    2.3324 H   0  0  0  0  0  0  0  0  0  0  0  0
    4.0879    1.7722    1.3115 H   0  0  0  0  0  0  0  0  0  0  0  0
    2.9372    1.7883   -1.7302 H   0  0  0  0  0  0  0  0  0  0  0  0
    1.1641    1.6882   -1.7577 H   0  0  0  0  0  0  0  0  0  0  0  0
    2.7043   -0.5258   -1.4067 H   0  0  0  0  0  0  0  0  0  0  0  0
   -1.6075   -1.0787   -2.6313 H   0  0  0  0  0  0  0  0  0  0  0  0
   -1.7825   -0.5861   -0.9182 H   0  0  0  0  0  0  0  0  0  0  0  0
   -1.0848   -2.1756   -1.3265 H   0  0  0  0  0  0  0  0  0  0  0  0
  1  3  1  0  0  0  0
  1  5  1  0  0  0  0
  1  7  2  0  0  0  0
  2  5  1  0  0  0  0
  2  8  2  0  0  0  0
  2  9  1  0  0  0  0
  3 10  1  0  0  0  0
  4  5  1  0  0  0  0
  4 10  1  0  0  0  0
  6  9  1  0  0  0  0
  3 11  1  0  0  0  0
  3 12  1  0  0  0  0
  4 13  1  0  0  0  0
  4 14  1  0  0  0  0
  5 15  1  0  0  0  0
  6 16  1  0  0  0  0
  6 17  1  0  0  0  0
  6 18  1  0  0  0  0
M  END
$$$$
frag.vs.041
  -OEChem-01121112253D

 15 15  0     0  0  0  0  0  0999 V2000
   -0.2528    0.8087   -2.0577 C   0  0  0  0  0  0  0  0  0  0  0  0
   -0.4682   -0.0882   -0.9718 C   0  0  0  0  0  0  0  0  0  0  0  0
   -0.9783    0.4538   -3.1737 C   0  0  0  0  0  0  0  0  0  0  0  0
   -1.3504   -1.0945   -1.2990 C   0  0  0  0  0  0  0  0  0  0  0  0
   -1.8169   -2.1736   -0.4902 C   0  0  0  0  0  0  0  0  0  0  0  0
   -1.6692   -3.1926    1.6865 C   0  0  0  0  0  0  0  0  0  0  0  0
   -2.6255   -3.0597   -0.8551 O   0  0  0  0  0  0  0  0  0  0  0  0
   -1.2781   -2.1571    0.7785 O   0  0  0  0  0  0  0  0  0  0  0  0
   -1.9146   -0.9556   -2.9098 S   0  0  0  0  0  0  0  0  0  0  0  0
    0.4020    1.6696   -2.0225 H   0  0  0  0  0  0  0  0  0  0  0  0
    0.0028    0.0050   -0.0012 H   0  0  0  0  0  0  0  0  0  0  0  0
   -1.0025    0.9543   -4.1314 H   0  0  0  0  0  0  0  0  0  0  0  0
   -1.1642   -3.0479    2.6447 H   0  0  0  0  0  0  0  0  0  0  0  0
   -1.4044   -4.1661    1.2663 H   0  0  0  0  0  0  0  0  0  0  0  0
   -2.7504   -3.1444    1.8362 H   0  0  0  0  0  0  0  0  0  0  0  0
  1  2  1  0  0  0  0
  1  3  2  0  0  0  0
  2  4  2  0  0  0  0
  3  9  1  0  0  0  0
  4  5  1  0  0  0  0
  4  9  1  0  0  0  0
  5  7  2  0  0  0  0
  5  8  1  0  0  0  0
  6  8  1  0  0  0  0
  1 10  1  0  0  0  0
  2 11  1  0  0  0  0
  3 12  1  0  0  0  0
  6 13  1  0  0  0  0
  6 14  1  0  0  0  0
  6 15  1  0  0  0  0
M  END
$$$$
frag.vs.042
  -OEChem-01121112253D

 26 27  0     0  0  0  0  0  0999 V2000
   -0.3752   -2.6762    0.8450 C   0  0  0  0  0  0  0  0  0  0  0  0
   -0.8959   -2.7503    2.1369 C   0  0  0  0  0  0  0  0  0  0  0  0
    0.8630   -2.0724    0.6256 C   0  0  0  0  0  0  0  0  0  0  0  0
    4.3751   -3.6320    5.9475 C   0  0  0  0  0  0  0  0  0  0  0  0
    4.2591   -2.3218    6.3985 C   0  0  0  0  0  0  0  0  0  0  0  0
   -0.1785   -2.2205    3.2094 C   0  0  0  0  0  0  0  0  0  0  0  0
    1.5804   -1.5426    1.6981 C   0  0  0  0  0  0  0  0  0  0  0  0
    3.5964   -4.0178    4.8684 C   0  0  0  0  0  0  0  0  0  0  0  0
    3.3803   -1.4499    5.7655 C   0  0  0  0  0  0  0  0  0  0  0  0
    1.0597   -1.6166    2.9900 C   0  0  0  0  0  0  0  0  0  0  0  0
    2.6462   -1.9333    4.6944 C   0  0  0  0  0  0  0  0  0  0  0  0
    3.2529   -0.0780    6.2323 C   0  0  0  0  0  0  0  0  0  0  0  0
    2.7318   -3.1994    4.2279 N   0  0  0  0  0  0  0  0  0  0  0  0
    2.2988    0.1870    7.2102 N   0  0  0  0  0  0  0  0  0  0  0  0
    3.9579    0.8334    5.7650 O   0  0  0  0  0  0  0  0  0  0  0  0
    1.7593   -1.0981    4.0359 O   0  0  0  0  0  0  0  0  0  0  0  0
   -0.9332   -3.0891    0.0097 H   0  0  0  0  0  0  0  0  0  0  0  0
   -1.8601   -3.2203    2.3079 H   0  0  0  0  0  0  0  0  0  0  0  0
    1.2679   -2.0153   -0.3807 H   0  0  0  0  0  0  0  0  0  0  0  0
    5.0545   -4.3293    6.4243 H   0  0  0  0  0  0  0  0  0  0  0  0
    4.8575   -1.9913    7.2432 H   0  0  0  0  0  0  0  0  0  0  0  0
   -0.5903   -2.2801    4.2131 H   0  0  0  0  0  0  0  0  0  0  0  0
    2.5435   -1.0718    1.5210 H   0  0  0  0  0  0  0  0  0  0  0  0
    3.6500   -5.0286    4.4774 H   0  0  0  0  0  0  0  0  0  0  0  0
    1.7277   -0.5725    7.5646 H   0  0  0  0  0  0  0  0  0  0  0  0
    2.1621    1.1235    7.5764 H   0  0  0  0  0  0  0  0  0  0  0  0
  1  2  1  0  0  0  0
  1  3  2  0  0  0  0
  2  6  2  0  0  0  0
  3  7  1  0  0  0  0
  4  5  1  0  0  0  0
  4  8  2  0  0  0  0
  5  9  2  0  0  0  0
  6 10  1  0  0  0  0
  7 10  2  0  0  0  0
  8 13  1  0  0  0  0
  9 11  1  0  0  0  0
  9 12  1  0  0  0  0
 10 16  1  0  0  0  0
 11 13  2  0  0  0  0
 11 16  1  0  0  0  0
 12 14  1  0  0  0  0
 12 15  2  0  0  0  0
  1 17  1  0  0  0  0
  2 18  1  0  0  0  0
  3 19  1  0  0  0  0
  4 20  1  0  0  0  0
  5 21  1  0  0  0  0
  6 22  1  0  0  0  0
  7 23  1  0  0  0  0
  8 24  1  0  0  0  0
 14 25  1  0  0  0  0
 14 26  1  0  0  0  0
M  END
$$$$
frag.vs.043
  -OEChem-01121112253D

 27 28  0     0  0  0  0  0  0999 V2000
    3.2604   -2.0052    2.9460 C   0  0  0  0  0  0  0  0  0  0  0  0
    3.3705   -2.0142    1.5600 C   0  0  0  0  0  0  0  0  0  0  0  0
    1.9885   -2.0115    3.4956 C   0  0  0  0  0  0  0  0  0  0  0  0
    2.2216   -2.0289    0.7770 C   0  0  0  0  0  0  0  0  0  0  0  0
    0.9962   -2.0343    1.4237 C   0  0  0  0  0  0  0  0  0  0  0  0
    2.3474   -2.0330   -0.6740 C   0  0  0  0  0  0  0  0  0  0  0  0
   -0.7487   -0.7573    0.2490 C   0  0  0  0  0  0  0  0  0  0  0  0
   -1.1193   -3.1528    0.7691 C   0  0  0  0  0  0  0  0  0  0  0  0
   -1.6486   -0.9498   -0.9663 C   0  0  0  0  0  0  0  0  0  0  0  0
   -2.0000   -3.2173   -0.4738 C   0  0  0  0  0  0  0  0  0  0  0  0
    0.8495   -2.0258    2.7676 N   0  0  0  0  0  0  0  0  0  0  0  0
   -0.1641   -2.0466    0.6428 N   0  0  0  0  0  0  0  0  0  0  0  0
    1.5458   -2.5476   -1.4587 O   0  0  0  0  0  0  0  0  0  0  0  0
   -2.6269   -1.9569   -0.7084 O   0  0  0  0  0  0  0  0  0  0  0  0
    3.4703   -1.3929   -1.0987 O   0  0  0  0  0  0  0  0  0  0  0  0
    4.1424   -1.9920    3.5761 H   0  0  0  0  0  0  0  0  0  0  0  0
    4.3561   -2.0091    1.1020 H   0  0  0  0  0  0  0  0  0  0  0  0
    1.8486   -2.0049    4.5716 H   0  0  0  0  0  0  0  0  0  0  0  0
    0.0372   -0.0311    0.0104 H   0  0  0  0  0  0  0  0  0  0  0  0
   -1.3406   -0.3624    1.0847 H   0  0  0  0  0  0  0  0  0  0  0  0
   -1.7468   -2.9866    1.6541 H   0  0  0  0  0  0  0  0  0  0  0  0
   -0.5946   -4.1073    0.8942 H   0  0  0  0  0  0  0  0  0  0  0  0
   -2.1762   -0.0173   -1.1906 H   0  0  0  0  0  0  0  0  0  0  0  0
   -1.0681   -1.2238   -1.8556 H   0  0  0  0  0  0  0  0  0  0  0  0
   -1.4198   -3.5051   -1.3589 H   0  0  0  0  0  0  0  0  0  0  0  0
   -2.7870   -3.9655   -0.3361 H   0  0  0  0  0  0  0  0  0  0  0  0
    3.5639   -1.3894   -2.0753 H   0  0  0  0  0  0  0  0  0  0  0  0
  1  2  1  0  0  0  0
  1  3  2  0  0  0  0
  2  4  2  0  0  0  0
  3 11  1  0  0  0  0
  4  5  1  0  0  0  0
  4  6  1  0  0  0  0
  5 11  2  0  0  0  0
  5 12  1  0  0  0  0
  6 13  2  0  0  0  0
  6 15  1  0  0  0  0
  7  9  1  0  0  0  0
  7 12  1  0  0  0  0
  8 10  1  0  0  0  0
  8 12  1  0  0  0  0
  9 14  1  0  0  0  0
 10 14  1  0  0  0  0
  1 16  1  0  0  0  0
  2 17  1  0  0  0  0
  3 18  1  0  0  0  0
  7 19  1  0  0  0  0
  7 20  1  0  0  0  0
  8 21  1  0  0  0  0
  8 22  1  0  0  0  0
  9 23  1  0  0  0  0
  9 24  1  0  0  0  0
 10 25  1  0  0  0  0
 10 26  1  0  0  0  0
 15 27  1  0  0  0  0
M  END
$$$$
frag.vs.044
  -OEChem-01121112253D

 21 21  0     0  0  0  0  0  0999 V2000
    0.0707   -2.7221   -1.7863 C   0  0  0  0  0  0  0  0  0  0  0  0
   -0.2303   -1.3824   -1.7538 C   0  0  0  0  0  0  0  0  0  0  0  0
    0.0890   -0.9817   -0.4426 C   0  0  0  0  0  0  0  0  0  0  0  0
   -0.7485   -0.6163   -2.8463 C   0  0  0  0  0  0  0  0  0  0  0  0
   -1.5531   -1.7262   -6.2705 C   0  0  0  0  0  0  0  0  0  0  0  0
   -1.4387   -0.7179   -5.1472 C   0  0  0  0  0  0  0  0  0  0  0  0
   -0.0361    0.3639    0.1457 C   0  0  0  0  0  0  0  0  0  0  0  0
    0.5568   -1.9856    0.3039 N   0  0  0  0  0  0  0  0  0  0  0  0
    0.5336   -3.0305   -0.5409 N   0  0  0  0  0  0  0  0  0  0  0  0
   -1.0203    0.6045   -2.8087 O   0  0  0  0  0  0  0  0  0  0  0  0
   -0.9253   -1.3733   -3.9826 O   0  0  0  0  0  0  0  0  0  0  0  0
   -0.5254    1.3142   -0.7163 F   0  0  0  0  0  0  0  0  0  0  0  0
   -0.8719    0.4289    1.2331 F   0  0  0  0  0  0  0  0  0  0  0  0
    1.1569    0.8751    0.5897 F   0  0  0  0  0  0  0  0  0  0  0  0
    0.0001   -3.4697   -2.5639 H   0  0  0  0  0  0  0  0  0  0  0  0
   -0.5758   -2.1531   -6.5127 H   0  0  0  0  0  0  0  0  0  0  0  0
   -2.2343   -2.5374   -5.9932 H   0  0  0  0  0  0  0  0  0  0  0  0
   -1.9662   -1.2570   -7.1696 H   0  0  0  0  0  0  0  0  0  0  0  0
   -2.4195   -0.2948   -4.9099 H   0  0  0  0  0  0  0  0  0  0  0  0
   -0.7572    0.0914   -5.4255 H   0  0  0  0  0  0  0  0  0  0  0  0
    0.8522   -3.9296   -0.2018 H   0  0  0  0  0  0  0  0  0  0  0  0
  1  2  2  0  0  0  0
  1  9  1  0  0  0  0
  2  3  1  0  0  0  0
  2  4  1  0  0  0  0
  3  7  1  0  0  0  0
  3  8  2  0  0  0  0
  4 10  2  0  0  0  0
  4 11  1  0  0  0  0
  5  6  1  0  0  0  0
  6 11  1  0  0  0  0
  7 12  1  0  0  0  0
  7 13  1  0  0  0  0
  7 14  1  0  0  0  0
  8  9  1  0  0  0  0
  1 15  1  0  0  0  0
  5 16  1  0  0  0  0
  5 17  1  0  0  0  0
  5 18  1  0  0  0  0
  6 19  1  0  0  0  0
  6 20  1  0  0  0  0
  9 21  1  0  0  0  0
M  END
$$$$
frag.vs.045
  -OEChem-01121112253D

 20 20  0     0  0  0  0  0  0999 V2000
   -0.9783    0.4538   -3.1737 C   0  0  0  0  0  0  0  0  0  0  0  0
   -0.2528    0.8087   -2.0577 C   0  0  0  0  0  0  0  0  0  0  0  0
   -0.4682   -0.0882   -0.9718 C   0  0  0  0  0  0  0  0  0  0  0  0
   -1.3504   -1.0945   -1.2990 C   0  0  0  0  0  0  0  0  0  0  0  0
   -1.8257   -2.1804   -0.5012 C   0  0  0  0  0  0  0  0  0  0  0  0
    0.6435    1.9901   -2.0098 C   0  0  0  0  0  0  0  0  0  0  0  0
   -1.6932   -3.2170    1.6665 C   0  0  0  0  0  0  0  0  0  0  0  0
    0.1237    0.0319    0.2416 N   0  0  0  0  0  0  0  0  0  0  0  0
   -2.6344   -3.0592   -0.8793 O   0  0  0  0  0  0  0  0  0  0  0  0
   -1.2935   -2.1751    0.7697 O   0  0  0  0  0  0  0  0  0  0  0  0
   -1.9146   -0.9556   -2.9098 S   0  0  0  0  0  0  0  0  0  0  0  0
   -1.0067    0.9513   -4.1333 H   0  0  0  0  0  0  0  0  0  0  0  0
    0.0953    2.8816   -1.6727 H   0  0  0  0  0  0  0  0  0  0  0  0
    1.4899    1.8302   -1.3248 H   0  0  0  0  0  0  0  0  0  0  0  0
    1.0790    2.2097   -2.9965 H   0  0  0  0  0  0  0  0  0  0  0  0
   -1.1933   -3.0822    2.6288 H   0  0  0  0  0  0  0  0  0  0  0  0
   -1.4292   -4.1878    1.2395 H   0  0  0  0  0  0  0  0  0  0  0  0
   -2.7751   -3.1666    1.8104 H   0  0  0  0  0  0  0  0  0  0  0  0
    0.8138    0.7678    0.4386 H   0  0  0  0  0  0  0  0  0  0  0  0
   -0.0198   -0.6618    0.9865 H   0  0  0  0  0  0  0  0  0  0  0  0
  1  2  2  0  0  0  0
  1 11  1  0  0  0  0
  2  3  1  0  0  0  0
  2  6  1  0  0  0  0
  3  4  2  0  0  0  0
  3  8  1  0  0  0  0
  4  5  1  0  0  0  0
  4 11  1  0  0  0  0
  5  9  2  0  0  0  0
  5 10  1  0  0  0  0
  7 10  1  0  0  0  0
  1 12  1  0  0  0  0
  6 13  1  0  0  0  0
  6 14  1  0  0  0  0
  6 15  1  0  0  0  0
  7 16  1  0  0  0  0
  7 17  1  0  0  0  0
  7 18  1  0  0  0  0
  8 19  1  0  0  0  0
  8 20  1  0  0  0  0
M  END
$$$$
frag.vs.046
  -OEChem-01121112253D

 20 20  0     0  0  0  0  0  0999 V2000
    0.2265   -0.4197    0.9733 C   0  0  0  0  0  0  0  0  0  0  0  0
   -0.6317   -1.3224    1.5803 C   0  0  0  0  0  0  0  0  0  0  0  0
    0.7299   -1.5161    3.4206 C   0  0  0  0  0  0  0  0  0  0  0  0
    1.6520   -0.6227    2.8997 C   0  0  0  0  0  0  0  0  0  0  0  0
    1.3879   -0.0684    1.6522 C   0  0  0  0  0  0  0  0  0  0  0  0
    2.8502   -0.2924    3.6555 C   0  0  0  0  0  0  0  0  0  0  0  0
    4.8214   -1.2056    4.6411 C   0  0  0  0  0  0  0  0  0  0  0  0
    2.3317    0.9023    1.0222 C   0  0  0  0  0  0  0  0  0  0  0  0
   -0.4092   -1.8816    2.7908 N   0  0  0  0  0  0  0  0  0  0  0  0
    3.1475    0.8487    4.0326 O   0  0  0  0  0  0  0  0  0  0  0  0
    3.6117   -1.4021    3.9011 O   0  0  0  0  0  0  0  0  0  0  0  0
    1.9203    1.3478   -0.2010 F   0  0  0  0  0  0  0  0  0  0  0  0
    2.5299    2.0301    1.7654 F   0  0  0  0  0  0  0  0  0  0  0  0
    3.5722    0.3712    0.8218 F   0  0  0  0  0  0  0  0  0  0  0  0
   -0.0088   -0.0055   -0.0012 H   0  0  0  0  0  0  0  0  0  0  0  0
   -1.5510   -1.6291    1.0923 H   0  0  0  0  0  0  0  0  0  0  0  0
    0.8799   -1.9820    4.3901 H   0  0  0  0  0  0  0  0  0  0  0  0
    5.3318   -2.1635    4.7675 H   0  0  0  0  0  0  0  0  0  0  0  0
    4.5863   -0.7743    5.6175 H   0  0  0  0  0  0  0  0  0  0  0  0
    5.4688   -0.5205    4.0887 H   0  0  0  0  0  0  0  0  0  0  0  0
  1  2  2  0  0  0  0
  1  5  1  0  0  0  0
  2  9  1  0  0  0  0
  3  4  1  0  0  0  0
  3  9  2  0  0  0  0
  4  5  2  0  0  0  0
  4  6  1  0  0  0  0
  5  8  1  0  0  0  0
  6 10  2  0  0  0  0
  6 11  1  0  0  0  0
  7 11  1  0  0  0  0
  8 12  1  0  0  0  0
  8 13  1  0  0  0  0
  8 14  1  0  0  0  0
  1 15  1  0  0  0  0
  2 16  1  0  0  0  0
  3 17  1  0  0  0  0
  7 18  1  0  0  0  0
  7 19  1  0  0  0  0
  7 20  1  0  0  0  0
M  END
$$$$
frag.vs.047
  -OEChem-01121112253D

 30 31  0     0  0  0  0  0  0999 V2000
    1.7903   -1.0162    1.8919 C   0  0  0  0  0  0  0  0  0  0  0  0
    2.8065   -1.6674    2.6166 C   0  0  0  0  0  0  0  0  0  0  0  0
    0.9962   -2.0343    1.4237 C   0  0  0  0  0  0  0  0  0  0  0  0
   -0.0168   -2.1229   -0.8171 C   0  0  0  0  0  0  0  0  0  0  0  0
   -1.3700   -1.3565    1.1136 C   0  0  0  0  0  0  0  0  0  0  0  0
   -1.3125   -2.6308   -1.4395 C   0  0  0  0  0  0  0  0  0  0  0  0
   -2.5937   -1.9048    0.3878 C   0  0  0  0  0  0  0  0  0  0  0  0
    3.9384   -1.0562    3.3366 C   0  0  0  0  0  0  0  0  0  0  0  0
    1.0998   -4.5390    1.6524 C   0  0  0  0  0  0  0  0  0  0  0  0
    2.6725   -2.9963    2.6121 N   0  0  0  0  0  0  0  0  0  0  0  0
    1.5627   -3.1884    1.8789 N   0  0  0  0  0  0  0  0  0  0  0  0
   -0.1641   -2.0466    0.6428 N   0  0  0  0  0  0  0  0  0  0  0  0
    1.6278    0.3078    1.6965 N   0  0  0  0  0  0  0  0  0  0  0  0
   -2.4147   -1.8237   -1.0257 O   0  0  0  0  0  0  0  0  0  0  0  0
    0.8072   -2.7918   -1.0925 H   0  0  0  0  0  0  0  0  0  0  0  0
    0.2122   -1.1214   -1.2016 H   0  0  0  0  0  0  0  0  0  0  0  0
   -1.2672   -0.2840    0.9050 H   0  0  0  0  0  0  0  0  0  0  0  0
   -1.4985   -1.4835    2.1950 H   0  0  0  0  0  0  0  0  0  0  0  0
   -1.2479   -2.5783   -2.5310 H   0  0  0  0  0  0  0  0  0  0  0  0
   -1.5039   -3.6758   -1.1674 H   0  0  0  0  0  0  0  0  0  0  0  0
   -2.7931   -2.9455    0.6708 H   0  0  0  0  0  0  0  0  0  0  0  0
   -3.4777   -1.3147    0.6495 H   0  0  0  0  0  0  0  0  0  0  0  0
    3.6726   -0.8351    4.3840 H   0  0  0  0  0  0  0  0  0  0  0  0
    4.8262   -1.7125    3.3492 H   0  0  0  0  0  0  0  0  0  0  0  0
    4.2668   -0.1112    2.8692 H   0  0  0  0  0  0  0  0  0  0  0  0
    1.5723   -4.9087    0.7386 H   0  0  0  0  0  0  0  0  0  0  0  0
    1.3743   -5.1659    2.5053 H   0  0  0  0  0  0  0  0  0  0  0  0
    0.0113   -4.5349    1.5465 H   0  0  0  0  0  0  0  0  0  0  0  0
    2.2514    1.0080    2.1270 H   0  0  0  0  0  0  0  0  0  0  0  0
    0.8185    0.6929    1.1855 H   0  0  0  0  0  0  0  0  0  0  0  0
  1  2  1  0  0  0  0
  1  3  2  0  0  0  0
  1 13  1  0  0  0  0
  2  8  1  0  0  0  0
  2 10  2  0  0  0  0
  3 11  1  0  0  0  0
  3 12  1  0  0  0  0
  4  6  1  0  0  0  0
  4 12  1  0  0  0  0
  5  7  1  0  0  0  0
  5 12  1  0  0  0  0
  6 14  1  0  0  0  0
  7 14  1  0  0  0  0
  9 11  1  0  0  0  0
 10 11  1  0  0  0  0
  4 15  1  0  0  0  0
  4 16  1  0  0  0  0
  5 17  1  0  0  0  0
  5 18  1  0  0  0  0
  6 19  1  0  0  0  0
  6 20  1  0  0  0  0
  7 21  1  0  0  0  0
  7 22  1  0  0  0  0
  8 23  1  0  0  0  0
  8 24  1  0  0  0  0
  8 25  1  0  0  0  0
  9 26  1  0  0  0  0
  9 27  1  0  0  0  0
  9 28  1  0  0  0  0
 13 29  1  0  0  0  0
 13 30  1  0  0  0  0
M  END
$$$$
frag.vs.048
  -OEChem-01121112253D

 29 30  0     0  0  0  0  0  0999 V2000
    0.4666   -0.2466    1.0412 C   0  0  0  0  0  0  0  0  0  0  0  0
    1.3402    0.7333    1.5739 C   0  0  0  0  0  0  0  0  0  0  0  0
   -0.2069   -0.8161    2.0992 C   0  0  0  0  0  0  0  0  0  0  0  0
    1.1741    0.7326    2.9413 C   0  0  0  0  0  0  0  0  0  0  0  0
   -1.7304   -0.7634    6.2921 C   0  0  0  0  0  0  0  0  0  0  0  0
   -0.2172   -0.5192    4.5449 C   0  0  0  0  0  0  0  0  0  0  0  0
   -1.5706   -0.3982    4.9736 C   0  0  0  0  0  0  0  0  0  0  0  0
    0.6060   -0.9721    5.5524 C   0  0  0  0  0  0  0  0  0  0  0  0
    2.0123   -1.2248    5.5327 C   0  0  0  0  0  0  0  0  0  0  0  0
    3.8580   -1.8944    4.1415 C   0  0  0  0  0  0  0  0  0  0  0  0
   -3.5238   -1.3420    3.2277 C   0  0  0  0  0  0  0  0  0  0  0  0
    0.2315   -0.2133    3.2493 N   0  0  0  0  0  0  0  0  0  0  0  0
    2.7824   -1.1193    6.5151 O   0  0  0  0  0  0  0  0  0  0  0  0
   -3.9242    0.6869    4.8395 O   0  0  0  0  0  0  0  0  0  0  0  0
   -2.3553    0.9630    2.8880 O   0  0  0  0  0  0  0  0  0  0  0  0
    2.4626   -1.6108    4.2891 O   0  0  0  0  0  0  0  0  0  0  0  0
   -0.2527   -1.2497    7.0077 S   0  0  0  0  0  0  0  0  0  0  0  0
   -2.8692    0.1370    3.9847 S   0  0  0  0  0  0  0  0  0  0  0  0
    0.3434   -0.5107    0.0003 H   0  0  0  0  0  0  0  0  0  0  0  0
    2.0177    1.3697    1.0224 H   0  0  0  0  0  0  0  0  0  0  0  0
   -0.9558   -1.5971    2.1223 H   0  0  0  0  0  0  0  0  0  0  0  0
    1.6497    1.3255    3.7119 H   0  0  0  0  0  0  0  0  0  0  0  0
   -2.6418   -0.7702    6.8740 H   0  0  0  0  0  0  0  0  0  0  0  0
    4.0642   -2.1853    3.1085 H   0  0  0  0  0  0  0  0  0  0  0  0
    4.1407   -2.7016    4.8219 H   0  0  0  0  0  0  0  0  0  0  0  0
    4.4310   -0.9969    4.3861 H   0  0  0  0  0  0  0  0  0  0  0  0
   -4.3579   -1.0590    2.5835 H   0  0  0  0  0  0  0  0  0  0  0  0
   -2.7304   -1.8095    2.6427 H   0  0  0  0  0  0  0  0  0  0  0  0
   -3.8621   -2.0129    4.0188 H   0  0  0  0  0  0  0  0  0  0  0  0
  1  2  1  0  0  0  0
  1  3  2  0  0  0  0
  2  4  2  0  0  0  0
  3 12  1  0  0  0  0
  4 12  1  0  0  0  0
  5  7  2  0  0  0  0
  5 17  1  0  0  0  0
  6  7  1  0  0  0  0
  6  8  2  0  0  0  0
  6 12  1  0  0  0  0
  7 18  1  0  0  0  0
  8  9  1  0  0  0  0
  8 17  1  0  0  0  0
  9 13  2  0  0  0  0
  9 16  1  0  0  0  0
 10 16  1  0  0  0  0
 11 18  1  0  0  0  0
 14 18  2  0  0  0  0
 15 18  2  0  0  0  0
  1 19  1  0  0  0  0
  2 20  1  0  0  0  0
  3 21  1  0  0  0  0
  4 22  1  0  0  0  0
  5 23  1  0  0  0  0
 10 24  1  0  0  0  0
 10 25  1  0  0  0  0
 10 26  1  0  0  0  0
 11 27  1  0  0  0  0
 11 28  1  0  0  0  0
 11 29  1  0  0  0  0
M  END
$$$$
frag.vs.049
  -OEChem-01121112253D

 18 19  0     0  0  0  0  0  0999 V2000
    1.0040    0.3914   -0.1206 C   0  0  0  0  0  0  0  0  0  0  0  0
    1.2194    1.7231   -0.4074 C   0  0  0  0  0  0  0  0  0  0  0  0
    3.2463    0.0129   -0.1276 C   0  0  0  0  0  0  0  0  0  0  0  0
    4.4892   -0.6764   -0.0313 C   0  0  0  0  0  0  0  0  0  0  0  0
    5.5634    0.1609   -0.2471 C   0  0  0  0  0  0  0  0  0  0  0  0
    3.4322    1.3577   -0.4159 C   0  0  0  0  0  0  0  0  0  0  0  0
    6.9609   -0.1371   -0.2383 C   0  0  0  0  0  0  0  0  0  0  0  0
    1.9970   -0.5043    0.0284 N   0  0  0  0  0  0  0  0  0  0  0  0
    2.4427    2.2612   -0.5668 N   0  0  0  0  0  0  0  0  0  0  0  0
    4.6017   -1.9990    0.2409 N   0  0  0  0  0  0  0  0  0  0  0  0
    7.8926    0.6711   -0.4426 O   0  0  0  0  0  0  0  0  0  0  0  0
    7.2365   -1.4538    0.0272 O   0  0  0  0  0  0  0  0  0  0  0  0
    5.0748    1.7725   -0.5650 S   0  0  0  0  0  0  0  0  0  0  0  0
   -0.0002   -0.0000   -0.0000 H   0  0  0  0  0  0  0  0  0  0  0  0
    0.3890    2.4119   -0.5199 H   0  0  0  0  0  0  0  0  0  0  0  0
    3.7807   -2.5837    0.4435 H   0  0  0  0  0  0  0  0  0  0  0  0
    5.5167   -2.4551    0.3497 H   0  0  0  0  0  0  0  0  0  0  0  0
    8.1937   -1.6686    0.0363 H   0  0  0  0  0  0  0  0  0  0  0  0
  1  2  1  0  0  0  0
  1  8  2  0  0  0  0
  2  9  2  0  0  0  0
  3  4  1  0  0  0  0
  3  6  2  0  0  0  0
  3  8  1  0  0  0  0
  4  5  2  0  0  0  0
  4 10  1  0  0  0  0
  5  7  1  0  0  0  0
  5 13  1  0  0  0  0
  6  9  1  0  0  0  0
  6 13  1  0  0  0  0
  7 11  2  0  0  0  0
  7 12  1  0  0  0  0
  1 14  1  0  0  0  0
  2 15  1  0  0  0  0
 10 16  1  0  0  0  0
 10 17  1  0  0  0  0
 12 18  1  0  0  0  0
M  END
$$$$
frag.vs.050_0
  -OEChem-01121112253D

 27 27  0     1  0  0  0  0  0999 V2000
   -0.3970   -0.7351    0.5431 C   0  0  0  0  0  0  0  0  0  0  0  0
   -0.7323   -2.5468   -2.0683 C   0  0  0  0  0  0  0  0  0  0  0  0
    0.6384    1.4378    1.2070 C   0  0  0  0  0  0  0  0  0  0  0  0
    1.2592    1.4868   -0.1743 C   0  0  0  0  0  0  0  0  0  0  0  0
    0.1053   -0.4977   -0.8784 C   0  0  1  0  0  0  0  0  0  0  0  0
   -2.6924   -4.6912   -4.2979 C   0  0  0  0  0  0  0  0  0  0  0  0
   -0.8768   -1.0546   -1.9052 C   0  0  0  0  0  0  0  0  0  0  0  0
   -1.6332   -4.3804   -3.2619 C   0  0  0  0  0  0  0  0  0  0  0  0
    0.0391    0.1535    1.5040 N   0  0  0  0  0  0  0  0  0  0  0  0
    0.3056    0.9324   -1.1301 N   0  0  0  0  0  0  0  0  0  0  0  0
   -1.0740   -1.7232    0.8338 O   0  0  0  0  0  0  0  0  0  0  0  0
    0.0696   -3.2517   -1.4712 O   0  0  0  0  0  0  0  0  0  0  0  0
   -1.6436   -2.9749   -2.9917 O   0  0  0  0  0  0  0  0  0  0  0  0
    1.3852    1.6456    1.9797 H   0  0  0  0  0  0  0  0  0  0  0  0
   -0.1586    2.1846    1.3000 H   0  0  0  0  0  0  0  0  0  0  0  0
    1.4966    2.5217   -0.4424 H   0  0  0  0  0  0  0  0  0  0  0  0
    2.2006    0.9252   -0.2039 H   0  0  0  0  0  0  0  0  0  0  0  0
    1.0585   -1.0302   -0.9864 H   0  0  0  0  0  0  0  0  0  0  0  0
   -3.6860   -4.4128   -3.9357 H   0  0  0  0  0  0  0  0  0  0  0  0
   -2.4915   -4.1515   -5.2292 H   0  0  0  0  0  0  0  0  0  0  0  0
   -2.6917   -5.7586   -4.5422 H   0  0  0  0  0  0  0  0  0  0  0  0
   -0.6916   -0.5757   -2.8698 H   0  0  0  0  0  0  0  0  0  0  0  0
   -1.8957   -0.8335   -1.5779 H   0  0  0  0  0  0  0  0  0  0  0  0
   -0.6420   -4.6611   -3.6304 H   0  0  0  0  0  0  0  0  0  0  0  0
   -1.8358   -4.9197   -2.3318 H   0  0  0  0  0  0  0  0  0  0  0  0
   -0.0665   -0.1091    2.4792 H   0  0  0  0  0  0  0  0  0  0  0  0
   -0.5846    1.4255   -1.0616 H   0  0  0  0  0  0  0  0  0  0  0  0
  1  5  1  0  0  0  0
  1  9  1  0  0  0  0
  1 11  2  0  0  0  0
  2  7  1  0  0  0  0
  2 12  2  0  0  0  0
  2 13  1  0  0  0  0
  3  4  1  0  0  0  0
  3  9  1  0  0  0  0
  4 10  1  0  0  0  0
  5  7  1  0  0  0  0
  5 10  1  0  0  0  0
  6  8  1  0  0  0  0
  8 13  1  0  0  0  0
  3 14  1  0  0  0  0
  3 15  1  0  0  0  0
  4 16  1  0  0  0  0
  4 17  1  0  0  0  0
  5 18  1  0  0  0  0
  6 19  1  0  0  0  0
  6 20  1  0  0  0  0
  6 21  1  0  0  0  0
  7 22  1  0  0  0  0
  7 23  1  0  0  0  0
  8 24  1  0  0  0  0
  8 25  1  0  0  0  0
  9 26  1  0  0  0  0
 10 27  1  0  0  0  0
M  END
$$$$
frag.vs.050_1
  -OEChem-01121112253D

 27 27  0     1  0  0  0  0  0999 V2000
   -0.4397   -0.8097    0.3793 C   0  0  0  0  0  0  0  0  0  0  0  0
    0.6039   -2.5728   -2.0819 C   0  0  0  0  0  0  0  0  0  0  0  0
   -0.5042    1.5871    1.0767 C   0  0  0  0  0  0  0  0  0  0  0  0
    0.0170    1.9322   -0.3037 C   0  0  0  0  0  0  0  0  0  0  0  0
    0.2677   -0.3791   -0.9026 C   0  0  2  0  0  0  0  0  0  0  0  0
    2.2568   -5.5097   -3.5150 C   0  0  0  0  0  0  0  0  0  0  0  0
    1.2733   -1.4350   -1.3531 C   0  0  0  0  0  0  0  0  0  0  0  0
    1.0826   -4.6190   -3.1691 C   0  0  0  0  0  0  0  0  0  0  0  0
   -0.9134    0.2026    1.1881 N   0  0  0  0  0  0  0  0  0  0  0  0
    0.9619    0.8979   -0.7132 N   0  0  0  0  0  0  0  0  0  0  0  0
   -0.6626   -1.9960    0.6285 O   0  0  0  0  0  0  0  0  0  0  0  0
   -0.5966   -2.6706   -2.2952 O   0  0  0  0  0  0  0  0  0  0  0  0
    1.5610   -3.4711   -2.4607 O   0  0  0  0  0  0  0  0  0  0  0  0
    0.2726    1.7456    1.8336 H   0  0  0  0  0  0  0  0  0  0  0  0
   -1.3626    2.2131    1.3394 H   0  0  0  0  0  0  0  0  0  0  0  0
   -0.8040    2.0129   -1.0265 H   0  0  0  0  0  0  0  0  0  0  0  0
    0.5187    2.9051   -0.2741 H   0  0  0  0  0  0  0  0  0  0  0  0
   -0.4997   -0.2751   -1.6805 H   0  0  0  0  0  0  0  0  0  0  0  0
    2.9735   -4.9815   -4.1500 H   0  0  0  0  0  0  0  0  0  0  0  0
    2.7686   -5.8439   -2.6066 H   0  0  0  0  0  0  0  0  0  0  0  0
    1.9174   -6.4097   -4.0385 H   0  0  0  0  0  0  0  0  0  0  0  0
    1.7871   -1.8334   -0.4748 H   0  0  0  0  0  0  0  0  0  0  0  0
    2.0015   -0.9689   -2.0214 H   0  0  0  0  0  0  0  0  0  0  0  0
    0.3697   -5.1533   -2.5340 H   0  0  0  0  0  0  0  0  0  0  0  0
    0.5730   -4.2853   -4.0779 H   0  0  0  0  0  0  0  0  0  0  0  0
   -1.5906   -0.0379    1.9055 H   0  0  0  0  0  0  0  0  0  0  0  0
    1.4010    1.1743   -1.5913 H   0  0  0  0  0  0  0  0  0  0  0  0
  1  5  1  0  0  0  0
  1  9  1  0  0  0  0
  1 11  2  0  0  0  0
  2  7  1  0  0  0  0
  2 12  2  0  0  0  0
  2 13  1  0  0  0  0
  3  4  1  0  0  0  0
  3  9  1  0  0  0  0
  4 10  1  0  0  0  0
  5  7  1  0  0  0  0
  5 10  1  0  0  0  0
  6  8  1  0  0  0  0
  8 13  1  0  0  0  0
  3 14  1  0  0  0  0
  3 15  1  0  0  0  0
  4 16  1  0  0  0  0
  4 17  1  0  0  0  0
  5 18  1  0  0  0  0
  6 19  1  0  0  0  0
  6 20  1  0  0  0  0
  6 21  1  0  0  0  0
  7 22  1  0  0  0  0
  7 23  1  0  0  0  0
  8 24  1  0  0  0  0
  8 25  1  0  0  0  0
  9 26  1  0  0  0  0
 10 27  1  0  0  0  0
M  END
$$$$
frag.vs.051
  -OEChem-01121112253D

 25 25  0     0  0  0  0  0  0999 V2000
    0.2891    0.0196    1.0414 C   0  0  0  0  0  0  0  0  0  0  0  0
    1.5204    0.4727    1.5759 C   0  0  0  0  0  0  0  0  0  0  0  0
    1.4575    0.3171    2.9431 C   0  0  0  0  0  0  0  0  0  0  0  0
   -0.4888   -0.3990    2.0983 C   0  0  0  0  0  0  0  0  0  0  0  0
    2.4475    0.6294    3.9263 C   0  0  0  0  0  0  0  0  0  0  0  0
    2.6553    1.0114    0.7991 C   0  0  0  0  0  0  0  0  0  0  0  0
   -1.8516   -0.9608    2.1287 C   0  0  0  0  0  0  0  0  0  0  0  0
    2.2797    0.2168    7.5888 C   0  0  0  0  0  0  0  0  0  0  0  0
    2.9356    0.6085    6.2819 C   0  0  0  0  0  0  0  0  0  0  0  0
    0.2315   -0.2133    3.2493 N   0  0  0  0  0  0  0  0  0  0  0  0
    3.5770    1.1149    3.6887 O   0  0  0  0  0  0  0  0  0  0  0  0
    2.0302    0.3381    5.2063 O   0  0  0  0  0  0  0  0  0  0  0  0
   -0.0007    0.0003   -0.0005 H   0  0  0  0  0  0  0  0  0  0  0  0
    2.5718    2.1038    0.6809 H   0  0  0  0  0  0  0  0  0  0  0  0
    3.6240    0.7988    1.2819 H   0  0  0  0  0  0  0  0  0  0  0  0
    2.7128    0.5677   -0.2093 H   0  0  0  0  0  0  0  0  0  0  0  0
   -1.8317   -2.0606    2.0477 H   0  0  0  0  0  0  0  0  0  0  0  0
   -2.3860   -0.7045    3.0602 H   0  0  0  0  0  0  0  0  0  0  0  0
   -2.4778   -0.5767    1.3044 H   0  0  0  0  0  0  0  0  0  0  0  0
    1.3627    0.7898    7.7522 H   0  0  0  0  0  0  0  0  0  0  0  0
    2.0353   -0.8505    7.5934 H   0  0  0  0  0  0  0  0  0  0  0  0
    2.9597    0.3913    8.4292 H   0  0  0  0  0  0  0  0  0  0  0  0
    3.8520    0.0319    6.1245 H   0  0  0  0  0  0  0  0  0  0  0  0
    3.1784    1.6753    6.2786 H   0  0  0  0  0  0  0  0  0  0  0  0
   -0.0907   -0.4355    4.1816 H   0  0  0  0  0  0  0  0  0  0  0  0
  1  2  1  0  0  0  0
  1  4  2  0  0  0  0
  2  3  2  0  0  0  0
  2  6  1  0  0  0  0
  3  5  1  0  0  0  0
  3 10  1  0  0  0  0
  4  7  1  0  0  0  0
  4 10  1  0  0  0  0
  5 11  2  0  0  0  0
  5 12  1  0  0  0  0
  8  9  1  0  0  0  0
  9 12  1  0  0  0  0
  1 13  1  0  0  0  0
  6 14  1  0  0  0  0
  6 15  1  0  0  0  0
  6 16  1  0  0  0  0
  7 17  1  0  0  0  0
  7 18  1  0  0  0  0
  7 19  1  0  0  0  0
  8 20  1  0  0  0  0
  8 21  1  0  0  0  0
  8 22  1  0  0  0  0
  9 23  1  0  0  0  0
  9 24  1  0  0  0  0
 10 25  1  0  0  0  0
M  END
$$$$
frag.vs.052
  -OEChem-01121112253D

 26 27  0     0  0  0  0  0  0999 V2000
    1.8851   -1.0363   -0.1124 C   0  0  0  0  0  0  0  0  0  0  0  0
    0.8066   -0.4630    0.5610 C   0  0  0  0  0  0  0  0  0  0  0  0
    1.0282   -1.4678    6.1306 C   0  0  0  0  0  0  0  0  0  0  0  0
    2.2397   -0.7361    6.1930 C   0  0  0  0  0  0  0  0  0  0  0  0
    2.9210   -1.6309    0.6081 C   0  0  0  0  0  0  0  0  0  0  0  0
    0.7638   -0.4841    1.9551 C   0  0  0  0  0  0  0  0  0  0  0  0
    0.7390   -1.6718    4.7994 C   0  0  0  0  0  0  0  0  0  0  0  0
    2.6539   -0.5151    4.8980 C   0  0  0  0  0  0  0  0  0  0  0  0
    2.8783   -1.6520    2.0022 C   0  0  0  0  0  0  0  0  0  0  0  0
    1.7997   -1.0786    2.6757 C   0  0  0  0  0  0  0  0  0  0  0  0
    3.9799   -2.2834    2.7197 C   0  0  0  0  0  0  0  0  0  0  0  0
    1.7339   -1.0880    4.0593 N   0  0  0  0  0  0  0  0  0  0  0  0
    6.3362   -2.2601    3.1696 N   0  0  0  0  0  0  0  0  0  0  0  0
    5.2442   -1.7329    2.5047 N   0  0  0  0  0  0  0  0  0  0  0  0
    3.8130   -3.2363    3.4946 O   0  0  0  0  0  0  0  0  0  0  0  0
    1.9187   -1.0200   -1.1979 H   0  0  0  0  0  0  0  0  0  0  0  0
   -0.0000   -0.0005   -0.0003 H   0  0  0  0  0  0  0  0  0  0  0  0
    0.4308   -1.8089    6.9643 H   0  0  0  0  0  0  0  0  0  0  0  0
    2.7548   -0.4053    7.0841 H   0  0  0  0  0  0  0  0  0  0  0  0
    3.7557   -2.0747    0.0714 H   0  0  0  0  0  0  0  0  0  0  0  0
   -0.0837   -0.0328    2.4658 H   0  0  0  0  0  0  0  0  0  0  0  0
   -0.0915   -2.1800    4.3263 H   0  0  0  0  0  0  0  0  0  0  0  0
    3.5240    0.0010    4.5130 H   0  0  0  0  0  0  0  0  0  0  0  0
    6.9719   -1.4848    3.3525 H   0  0  0  0  0  0  0  0  0  0  0  0
    6.0037   -2.5714    4.0812 H   0  0  0  0  0  0  0  0  0  0  0  0
    5.3611   -0.9532    1.8666 H   0  0  0  0  0  0  0  0  0  0  0  0
  1  2  1  0  0  0  0
  1  5  2  0  0  0  0
  2  6  2  0  0  0  0
  3  4  1  0  0  0  0
  3  7  2  0  0  0  0
  4  8  2  0  0  0  0
  5  9  1  0  0  0  0
  6 10  1  0  0  0  0
  7 12  1  0  0  0  0
  8 12  1  0  0  0  0
  9 10  2  0  0  0  0
  9 11  1  0  0  0  0
 10 12  1  0  0  0  0
 11 14  1  0  0  0  0
 11 15  2  0  0  0  0
 13 14  1  0  0  0  0
  1 16  1  0  0  0  0
  2 17  1  0  0  0  0
  3 18  1  0  0  0  0
  4 19  1  0  0  0  0
  5 20  1  0  0  0  0
  6 21  1  0  0  0  0
  7 22  1  0  0  0  0
  8 23  1  0  0  0  0
 13 24  1  0  0  0  0
 13 25  1  0  0  0  0
 14 26  1  0  0  0  0
M  END
$$$$
frag.vs.053
  -OEChem-01121112253D

 25 26  0     0  0  0  0  0  0999 V2000
    1.8861   -1.0331   -0.1124 C   0  0  0  0  0  0  0  0  0  0  0  0
    3.0004   -0.6355    0.6265 C   0  0  0  0  0  0  0  0  0  0  0  0
    0.7286   -1.4534    0.5428 C   0  0  0  0  0  0  0  0  0  0  0  0
    2.9572   -0.6583    2.0205 C   0  0  0  0  0  0  0  0  0  0  0  0
    0.6854   -1.4762    1.9368 C   0  0  0  0  0  0  0  0  0  0  0  0
    1.5459   -0.7392    6.2758 C   0  0  0  0  0  0  0  0  0  0  0  0
    1.7997   -1.0786    2.6757 C   0  0  0  0  0  0  0  0  0  0  0  0
    1.3737   -0.1352    5.0159 C   0  0  0  0  0  0  0  0  0  0  0  0
    1.7549   -1.1012    4.1171 C   0  0  0  0  0  0  0  0  0  0  0  0
    0.9107    1.1851    4.7085 C   0  0  0  0  0  0  0  0  0  0  0  0
    2.5933   -3.4600    4.3816 C   0  0  0  0  0  0  0  0  0  0  0  0
    2.0008   -1.9920    6.1892 N   0  0  0  0  0  0  0  0  0  0  0  0
    2.1177   -2.1831    4.8641 N   0  0  0  0  0  0  0  0  0  0  0  0
    0.7761    1.6728    3.5675 O   0  0  0  0  0  0  0  0  0  0  0  0
    0.6044    1.9249    5.8199 O   0  0  0  0  0  0  0  0  0  0  0  0
    1.9195   -1.0148   -1.1978 H   0  0  0  0  0  0  0  0  0  0  0  0
    3.9016   -0.3085    0.1161 H   0  0  0  0  0  0  0  0  0  0  0  0
   -0.1395   -1.7620   -0.0325 H   0  0  0  0  0  0  0  0  0  0  0  0
    3.8332   -0.3428    2.5822 H   0  0  0  0  0  0  0  0  0  0  0  0
   -0.2240   -1.8074    2.4326 H   0  0  0  0  0  0  0  0  0  0  0  0
    1.3616   -0.3206    7.2551 H   0  0  0  0  0  0  0  0  0  0  0  0
    3.6824   -3.4065    4.3030 H   0  0  0  0  0  0  0  0  0  0  0  0
    2.2988   -4.2466    5.0819 H   0  0  0  0  0  0  0  0  0  0  0  0
    2.1480   -3.6656    3.4042 H   0  0  0  0  0  0  0  0  0  0  0  0
    0.2854    2.8307    5.6199 H   0  0  0  0  0  0  0  0  0  0  0  0
  1  2  1  0  0  0  0
  1  3  2  0  0  0  0
  2  4  2  0  0  0  0
  3  5  1  0  0  0  0
  4  7  1  0  0  0  0
  5  7  2  0  0  0  0
  6  8  1  0  0  0  0
  6 12  2  0  0  0  0
  7  9  1  0  0  0  0
  8  9  2  0  0  0  0
  8 10  1  0  0  0  0
  9 13  1  0  0  0  0
 10 14  2  0  0  0  0
 10 15  1  0  0  0  0
 11 13  1  0  0  0  0
 12 13  1  0  0  0  0
  1 16  1  0  0  0  0
  2 17  1  0  0  0  0
  3 18  1  0  0  0  0
  4 19  1  0  0  0  0
  5 20  1  0  0  0  0
  6 21  1  0  0  0  0
 11 22  1  0  0  0  0
 11 23  1  0  0  0  0
 11 24  1  0  0  0  0
 15 25  1  0  0  0  0
M  END
$$$$
frag.vs.054
  -OEChem-01121112253D

 25 26  0     0  0  0  0  0  0999 V2000
    1.8872   -1.0352   -0.1124 C   0  0  0  0  0  0  0  0  0  0  0  0
    2.2868    0.0855    0.6154 C   0  0  0  0  0  0  0  0  0  0  0  0
    1.4437   -2.1777    0.5538 C   0  0  0  0  0  0  0  0  0  0  0  0
    2.2431    0.0638    2.0094 C   0  0  0  0  0  0  0  0  0  0  0  0
    1.4000   -2.1994    1.9478 C   0  0  0  0  0  0  0  0  0  0  0  0
    2.1952   -1.7327    6.0099 C   0  0  0  0  0  0  0  0  0  0  0  0
    1.2991   -0.6557    6.1468 C   0  0  0  0  0  0  0  0  0  0  0  0
    1.7997   -1.0786    2.6757 C   0  0  0  0  0  0  0  0  0  0  0  0
    1.0324   -0.2649    4.8574 C   0  0  0  0  0  0  0  0  0  0  0  0
    0.7638   -0.0713    7.3391 C   0  0  0  0  0  0  0  0  0  0  0  0
    0.1666    0.8108    4.3315 C   0  0  0  0  0  0  0  0  0  0  0  0
    2.4788   -2.0086    4.7342 N   0  0  0  0  0  0  0  0  0  0  0  0
    1.7565   -1.0993    4.0577 N   0  0  0  0  0  0  0  0  0  0  0  0
   -0.0324    0.8888    7.3981 O   0  0  0  0  0  0  0  0  0  0  0  0
    1.2093   -0.6732    8.4865 O   0  0  0  0  0  0  0  0  0  0  0  0
    1.9193   -1.0183   -1.1978 H   0  0  0  0  0  0  0  0  0  0  0  0
    2.6309    0.9756    0.0969 H   0  0  0  0  0  0  0  0  0  0  0  0
    1.1313   -3.0496   -0.0137 H   0  0  0  0  0  0  0  0  0  0  0  0
    2.5568    0.9445    2.5647 H   0  0  0  0  0  0  0  0  0  0  0  0
    1.0515   -3.0962    2.4544 H   0  0  0  0  0  0  0  0  0  0  0  0
    2.6549   -2.3299    6.7847 H   0  0  0  0  0  0  0  0  0  0  0  0
    0.7269    1.7534    4.2252 H   0  0  0  0  0  0  0  0  0  0  0  0
   -0.2538    0.5561    3.3443 H   0  0  0  0  0  0  0  0  0  0  0  0
   -0.6963    1.0047    4.9906 H   0  0  0  0  0  0  0  0  0  0  0  0
    0.8475   -0.2804    9.3093 H   0  0  0  0  0  0  0  0  0  0  0  0
  1  2  1  0  0  0  0
  1  3  2  0  0  0  0
  2  4  2  0  0  0  0
  3  5  1  0  0  0  0
  4  8  1  0  0  0  0
  5  8  2  0  0  0  0
  6  7  1  0  0  0  0
  6 12  2  0  0  0  0
  7  9  2  0  0  0  0
  7 10  1  0  0  0  0
  8 13  1  0  0  0  0
  9 11  1  0  0  0  0
  9 13  1  0  0  0  0
 10 14  2  0  0  0  0
 10 15  1  0  0  0  0
 12 13  1  0  0  0  0
  1 16  1  0  0  0  0
  2 17  1  0  0  0  0
  3 18  1  0  0  0  0
  4 19  1  0  0  0  0
  5 20  1  0  0  0  0
  6 21  1  0  0  0  0
 11 22  1  0  0  0  0
 11 23  1  0  0  0  0
 11 24  1  0  0  0  0
 15 25  1  0  0  0  0
M  END
$$$$
frag.vs.055
  -OEChem-01121112253D

 20 21  0     0  0  0  0  0  0999 V2000
    0.3850    0.7251    1.2423 C   0  0  0  0  0  0  0  0  0  0  0  0
    1.4193   -0.2343    1.3729 C   0  0  0  0  0  0  0  0  0  0  0  0
   -1.5791   -0.4102    4.9494 C   0  0  0  0  0  0  0  0  0  0  0  0
   -0.3340    0.7173    2.4172 C   0  0  0  0  0  0  0  0  0  0  0  0
    1.3007   -0.7992    2.6236 C   0  0  0  0  0  0  0  0  0  0  0  0
   -1.7576   -0.7685    6.2675 C   0  0  0  0  0  0  0  0  0  0  0  0
   -0.2172   -0.5192    4.5449 C   0  0  0  0  0  0  0  0  0  0  0  0
    0.5934   -0.9565    5.5694 C   0  0  0  0  0  0  0  0  0  0  0  0
    2.0022   -1.1940    5.5739 C   0  0  0  0  0  0  0  0  0  0  0  0
    0.2315   -0.2133    3.2493 N   0  0  0  0  0  0  0  0  0  0  0  0
    2.5703   -2.2811    5.8168 O   0  0  0  0  0  0  0  0  0  0  0  0
    2.7447   -0.0808    5.2739 O   0  0  0  0  0  0  0  0  0  0  0  0
   -0.2872   -1.2339    7.0116 S   0  0  0  0  0  0  0  0  0  0  0  0
    0.1840    1.3515    0.3847 H   0  0  0  0  0  0  0  0  0  0  0  0
    2.1686   -0.4874    0.6362 H   0  0  0  0  0  0  0  0  0  0  0  0
   -2.3922   -0.0858    4.3119 H   0  0  0  0  0  0  0  0  0  0  0  0
   -1.1967    1.2954    2.7217 H   0  0  0  0  0  0  0  0  0  0  0  0
    1.8881   -1.5661    3.1119 H   0  0  0  0  0  0  0  0  0  0  0  0
   -2.6810   -0.7788    6.8293 H   0  0  0  0  0  0  0  0  0  0  0  0
    3.7137   -0.2338    5.2735 H   0  0  0  0  0  0  0  0  0  0  0  0
  1  2  1  0  0  0  0
  1  4  2  0  0  0  0
  2  5  2  0  0  0  0
  3  6  2  0  0  0  0
  3  7  1  0  0  0  0
  4 10  1  0  0  0  0
  5 10  1  0  0  0  0
  6 13  1  0  0  0  0
  7  8  2  0  0  0  0
  7 10  1  0  0  0  0
  8  9  1  0  0  0  0
  8 13  1  0  0  0  0
  9 11  2  0  0  0  0
  9 12  1  0  0  0  0
  1 14  1  0  0  0  0
  2 15  1  0  0  0  0
  3 16  1  0  0  0  0
  4 17  1  0  0  0  0
  5 18  1  0  0  0  0
  6 19  1  0  0  0  0
 12 20  1  0  0  0  0
M  END
$$$$
frag.vs.056
  -OEChem-01121112253D

 26 27  0     0  0  0  0  0  0999 V2000
    1.8851   -1.0363   -0.1124 C   0  0  0  0  0  0  0  0  0  0  0  0
    0.8166   -0.4452    0.5616 C   0  0  0  0  0  0  0  0  0  0  0  0
    2.9110   -1.6487    0.6076 C   0  0  0  0  0  0  0  0  0  0  0  0
    0.7739   -0.4663    1.9556 C   0  0  0  0  0  0  0  0  0  0  0  0
    2.8682   -1.6698    2.0016 C   0  0  0  0  0  0  0  0  0  0  0  0
    1.1859   -2.0094    6.1968 C   0  0  0  0  0  0  0  0  0  0  0  0
    1.7997   -1.0786    2.6757 C   0  0  0  0  0  0  0  0  0  0  0  0
    1.1509   -2.1246    4.8221 C   0  0  0  0  0  0  0  0  0  0  0  0
    1.7549   -1.1005    4.1216 C   0  0  0  0  0  0  0  0  0  0  0  0
    2.3184   -0.0437    6.0536 C   0  0  0  0  0  0  0  0  0  0  0  0
    0.5073   -3.2664    4.1920 C   0  0  0  0  0  0  0  0  0  0  0  0
    2.9678    1.1116    6.7374 C   0  0  0  0  0  0  0  0  0  0  0  0
    1.7633   -0.9786    6.8482 N   0  0  0  0  0  0  0  0  0  0  0  0
    2.3502   -0.0408    4.7073 N   0  0  0  0  0  0  0  0  0  0  0  0
   -0.0436   -3.2577    3.0862 O   0  0  0  0  0  0  0  0  0  0  0  0
    0.5703   -4.3887    4.9599 O   0  0  0  0  0  0  0  0  0  0  0  0
    1.9173   -1.0212   -1.1979 H   0  0  0  0  0  0  0  0  0  0  0  0
    0.0170    0.0302    0.0011 H   0  0  0  0  0  0  0  0  0  0  0  0
    3.7426   -2.1104    0.0833 H   0  0  0  0  0  0  0  0  0  0  0  0
   -0.0661   -0.0013    2.4665 H   0  0  0  0  0  0  0  0  0  0  0  0
    3.6748   -2.1514    2.5494 H   0  0  0  0  0  0  0  0  0  0  0  0
    0.7386   -2.7603    6.8411 H   0  0  0  0  0  0  0  0  0  0  0  0
    4.0254    0.8950    6.9321 H   0  0  0  0  0  0  0  0  0  0  0  0
    2.9058    2.0221    6.1273 H   0  0  0  0  0  0  0  0  0  0  0  0
    2.4769    1.3361    7.6935 H   0  0  0  0  0  0  0  0  0  0  0  0
    0.1394   -5.1652    4.5430 H   0  0  0  0  0  0  0  0  0  0  0  0
  1  2  1  0  0  0  0
  1  3  2  0  0  0  0
  2  4  2  0  0  0  0
  3  5  1  0  0  0  0
  4  7  1  0  0  0  0
  5  7  2  0  0  0  0
  6  8  1  0  0  0  0
  6 13  2  0  0  0  0
  7  9  1  0  0  0  0
  8  9  2  0  0  0  0
  8 11  1  0  0  0  0
  9 14  1  0  0  0  0
 10 12  1  0  0  0  0
 10 13  1  0  0  0  0
 10 14  2  0  0  0  0
 11 15  2  0  0  0  0
 11 16  1  0  0  0  0
  1 17  1  0  0  0  0
  2 18  1  0  0  0  0
  3 19  1  0  0  0  0
  4 20  1  0  0  0  0
  5 21  1  0  0  0  0
  6 22  1  0  0  0  0
 12 23  1  0  0  0  0
 12 24  1  0  0  0  0
 12 25  1  0  0  0  0
 16 26  1  0  0  0  0
M  END
$$$$
frag.vs.057
  -OEChem-01121112253D

 26 27  0     0  0  0  0  0  0999 V2000
    1.8863   -1.0355   -0.1124 C   0  0  0  0  0  0  0  0  0  0  0  0
    2.6206   -0.1049    0.6226 C   0  0  0  0  0  0  0  0  0  0  0  0
    1.1086   -1.9877    0.5466 C   0  0  0  0  0  0  0  0  0  0  0  0
    2.5774   -0.1264    2.0167 C   0  0  0  0  0  0  0  0  0  0  0  0
    1.0653   -2.0093    1.9406 C   0  0  0  0  0  0  0  0  0  0  0  0
    2.7823   -0.7070    6.1108 C   0  0  0  0  0  0  0  0  0  0  0  0
    1.7997   -1.0786    2.6757 C   0  0  0  0  0  0  0  0  0  0  0  0
    1.6711   -1.1401    6.8052 C   0  0  0  0  0  0  0  0  0  0  0  0
    0.6058   -1.5514    6.0304 C   0  0  0  0  0  0  0  0  0  0  0  0
    1.7549   -1.1005    4.1216 C   0  0  0  0  0  0  0  0  0  0  0  0
    1.6558   -1.1519    8.2578 C   0  0  0  0  0  0  0  0  0  0  0  0
   -0.6524   -2.0384    6.6704 C   0  0  0  0  0  0  0  0  0  0  0  0
    2.8587   -0.6738    4.7642 N   0  0  0  0  0  0  0  0  0  0  0  0
    0.6134   -1.5447    4.6813 N   0  0  0  0  0  0  0  0  0  0  0  0
    0.6535   -1.0032    8.9661 O   0  0  0  0  0  0  0  0  0  0  0  0
    2.8930   -1.3507    8.7913 O   0  0  0  0  0  0  0  0  0  0  0  0
    1.9188   -1.0174   -1.1978 H   0  0  0  0  0  0  0  0  0  0  0  0
    3.2249    0.6376    0.1097 H   0  0  0  0  0  0  0  0  0  0  0  0
    0.5355   -2.7117   -0.0251 H   0  0  0  0  0  0  0  0  0  0  0  0
    3.1553    0.6059    2.5755 H   0  0  0  0  0  0  0  0  0  0  0  0
    0.4541   -2.7570    2.4404 H   0  0  0  0  0  0  0  0  0  0  0  0
    3.6735   -0.3621    6.6257 H   0  0  0  0  0  0  0  0  0  0  0  0
   -1.3435   -1.2034    6.8341 H   0  0  0  0  0  0  0  0  0  0  0  0
   -1.1518   -2.7877    6.0437 H   0  0  0  0  0  0  0  0  0  0  0  0
   -0.4466   -2.5163    7.6364 H   0  0  0  0  0  0  0  0  0  0  0  0
    2.8931   -1.3613    9.7723 H   0  0  0  0  0  0  0  0  0  0  0  0
  1  2  1  0  0  0  0
  1  3  2  0  0  0  0
  2  4  2  0  0  0  0
  3  5  1  0  0  0  0
  4  7  1  0  0  0  0
  5  7  2  0  0  0  0
  6  8  2  0  0  0  0
  6 13  1  0  0  0  0
  7 10  1  0  0  0  0
  8  9  1  0  0  0  0
  8 11  1  0  0  0  0
  9 12  1  0  0  0  0
  9 14  2  0  0  0  0
 10 13  2  0  0  0  0
 10 14  1  0  0  0  0
 11 15  2  0  0  0  0
 11 16  1  0  0  0  0
  1 17  1  0  0  0  0
  2 18  1  0  0  0  0
  3 19  1  0  0  0  0
  4 20  1  0  0  0  0
  5 21  1  0  0  0  0
  6 22  1  0  0  0  0
 12 23  1  0  0  0  0
 12 24  1  0  0  0  0
 12 25  1  0  0  0  0
 16 26  1  0  0  0  0
M  END
$$$$
frag.vs.058
  -OEChem-01121112253D

 22 23  0     0  0  0  0  0  0999 V2000
   -0.0399   -0.3963   -2.2145 C   0  0  0  0  0  0  0  0  0  0  0  0
   -0.1181   -0.6401   -0.8634 C   0  0  0  0  0  0  0  0  0  0  0  0
   -0.4822   -2.4809   -2.0488 C   0  0  0  0  0  0  0  0  0  0  0  0
   -0.7718   -3.8704   -2.1866 C   0  0  0  0  0  0  0  0  0  0  0  0
   -0.9518   -4.6267   -1.0866 C   0  0  0  0  0  0  0  0  0  0  0  0
   -0.8585   -4.0608    0.2498 C   0  0  0  0  0  0  0  0  0  0  0  0
   -0.5865   -2.7529    0.3879 C   0  0  0  0  0  0  0  0  0  0  0  0
    0.2417    0.8758   -2.8992 C   0  0  0  0  0  0  0  0  0  0  0  0
    0.0493    0.2592    0.2948 C   0  0  0  0  0  0  0  0  0  0  0  0
   -0.2662   -1.5371   -2.9422 N   0  0  0  0  0  0  0  0  0  0  0  0
   -0.4015   -1.9773   -0.7532 N   0  0  0  0  0  0  0  0  0  0  0  0
   -1.2237    0.5607    0.8663 O   0  0  0  0  0  0  0  0  0  0  0  0
   -0.8436   -4.3035   -3.1780 H   0  0  0  0  0  0  0  0  0  0  0  0
   -1.1728   -5.6852   -1.1715 H   0  0  0  0  0  0  0  0  0  0  0  0
   -1.0103   -4.7073    1.1055 H   0  0  0  0  0  0  0  0  0  0  0  0
   -0.5045   -2.2752    1.3567 H   0  0  0  0  0  0  0  0  0  0  0  0
    1.3244    1.0108   -3.0661 H   0  0  0  0  0  0  0  0  0  0  0  0
   -0.2560    0.9397   -3.8837 H   0  0  0  0  0  0  0  0  0  0  0  0
   -0.1166    1.7485   -2.3236 H   0  0  0  0  0  0  0  0  0  0  0  0
    0.6781   -0.1902    1.0835 H   0  0  0  0  0  0  0  0  0  0  0  0
    0.5311    1.2115    0.0111 H   0  0  0  0  0  0  0  0  0  0  0  0
   -1.0543    1.1499    1.6168 H   0  0  0  0  0  0  0  0  0  0  0  0
  1  2  2  0  0  0  0
  1  8  1  0  0  0  0
  1 10  1  0  0  0  0
  2  9  1  0  0  0  0
  2 11  1  0  0  0  0
  3  4  1  0  0  0  0
  3 10  2  0  0  0  0
  3 11  1  0  0  0  0
  4  5  2  0  0  0  0
  5  6  1  0  0  0  0
  6  7  2  0  0  0  0
  7 11  1  0  0  0  0
  9 12  1  0  0  0  0
  4 13  1  0  0  0  0
  5 14  1  0  0  0  0
  6 15  1  0  0  0  0
  7 16  1  0  0  0  0
  8 17  1  0  0  0  0
  8 18  1  0  0  0  0
  8 19  1  0  0  0  0
  9 20  1  0  0  0  0
  9 21  1  0  0  0  0
 12 22  1  0  0  0  0
M  END
$$$$
frag.vs.059
  -OEChem-01121112253D

 22 23  0     0  0  0  0  0  0999 V2000
    1.8851   -1.0363   -0.1124 C   0  0  0  0  0  0  0  0  0  0  0  0
    0.8066   -0.4630    0.5610 C   0  0  0  0  0  0  0  0  0  0  0  0
    2.9210   -1.6309    0.6081 C   0  0  0  0  0  0  0  0  0  0  0  0
    0.7638   -0.4841    1.9551 C   0  0  0  0  0  0  0  0  0  0  0  0
    2.8783   -1.6520    2.0022 C   0  0  0  0  0  0  0  0  0  0  0  0
    2.6173   -1.1070    6.0747 C   0  0  0  0  0  0  0  0  0  0  0  0
    1.7997   -1.0786    2.6757 C   0  0  0  0  0  0  0  0  0  0  0  0
    1.7549   -1.1012    4.1171 C   0  0  0  0  0  0  0  0  0  0  0  0
    0.7690   -1.1352    5.0717 C   0  0  0  0  0  0  0  0  0  0  0  0
   -0.6907   -1.1605    4.8970 C   0  0  0  0  0  0  0  0  0  0  0  0
    1.3277   -1.1390    6.3242 N   0  0  0  0  0  0  0  0  0  0  0  0
    2.9573   -1.0827    4.7569 O   0  0  0  0  0  0  0  0  0  0  0  0
   -1.0786   -2.3172    4.1520 O   0  0  0  0  0  0  0  0  0  0  0  0
    1.9181   -1.0204   -1.1979 H   0  0  0  0  0  0  0  0  0  0  0  0
    0.0002    0.0001   -0.0003 H   0  0  0  0  0  0  0  0  0  0  0  0
    3.7604   -2.0783    0.0837 H   0  0  0  0  0  0  0  0  0  0  0  0
   -0.0851   -0.0353    2.4653 H   0  0  0  0  0  0  0  0  0  0  0  0
    3.6940   -2.1183    2.5495 H   0  0  0  0  0  0  0  0  0  0  0  0
    3.4325   -1.0991    6.7824 H   0  0  0  0  0  0  0  0  0  0  0  0
   -1.2308   -1.1861    5.8624 H   0  0  0  0  0  0  0  0  0  0  0  0
   -1.0624   -0.2698    4.3562 H   0  0  0  0  0  0  0  0  0  0  0  0
   -2.0429   -2.2776    4.0708 H   0  0  0  0  0  0  0  0  0  0  0  0
  1  2  1  0  0  0  0
  1  3  2  0  0  0  0
  2  4  2  0  0  0  0
  3  5  1  0  0  0  0
  4  7  1  0  0  0  0
  5  7  2  0  0  0  0
  6 11  2  0  0  0  0
  6 12  1  0  0  0  0
  7  8  1  0  0  0  0
  8  9  2  0  0  0  0
  8 12  1  0  0  0  0
  9 10  1  0  0  0  0
  9 11  1  0  0  0  0
 10 13  1  0  0  0  0
  1 14  1  0  0  0  0
  2 15  1  0  0  0  0
  3 16  1  0  0  0  0
  4 17  1  0  0  0  0
  5 18  1  0  0  0  0
  6 19  1  0  0  0  0
 10 20  1  0  0  0  0
 10 21  1  0  0  0  0
 13 22  1  0  0  0  0
M  END
$$$$
frag.vs.060
  -OEChem-01121112253D

 20 21  0     0  0  0  0  0  0999 V2000
    1.8851   -1.0363   -0.1124 C   0  0  0  0  0  0  0  0  0  0  0  0
    0.8066   -0.4630    0.5610 C   0  0  0  0  0  0  0  0  0  0  0  0
    2.9210   -1.6309    0.6081 C   0  0  0  0  0  0  0  0  0  0  0  0
    0.7638   -0.4841    1.9551 C   0  0  0  0  0  0  0  0  0  0  0  0
    2.8783   -1.6520    2.0022 C   0  0  0  0  0  0  0  0  0  0  0  0
    1.7997   -1.0786    2.6757 C   0  0  0  0  0  0  0  0  0  0  0  0
    1.7561   -1.1004    4.1109 C   0  0  0  0  0  0  0  0  0  0  0  0
    1.1761   -2.1214    4.8369 C   0  0  0  0  0  0  0  0  0  0  0  0
    0.5208   -3.3235    4.4471 C   0  0  0  0  0  0  0  0  0  0  0  0
    2.3066   -0.0729    4.8607 N   0  0  0  0  0  0  0  0  0  0  0  0
    2.1595   -0.2863    6.1585 N   0  0  0  0  0  0  0  0  0  0  0  0
    0.3267   -3.7218    3.2745 O   0  0  0  0  0  0  0  0  0  0  0  0
    0.0810   -4.0799    5.5056 O   0  0  0  0  0  0  0  0  0  0  0  0
    1.3606   -1.7197    6.4950 S   0  0  0  0  0  0  0  0  0  0  0  0
    1.9181   -1.0209   -1.1979 H   0  0  0  0  0  0  0  0  0  0  0  0
   -0.0007   -0.0012    0.0001 H   0  0  0  0  0  0  0  0  0  0  0  0
    3.7600   -2.0783    0.0835 H   0  0  0  0  0  0  0  0  0  0  0  0
   -0.0838   -0.0329    2.4656 H   0  0  0  0  0  0  0  0  0  0  0  0
    3.6937   -2.1194    2.5494 H   0  0  0  0  0  0  0  0  0  0  0  0
   -0.3714   -4.9112    5.2474 H   0  0  0  0  0  0  0  0  0  0  0  0
  1  2  1  0  0  0  0
  1  3  2  0  0  0  0
  2  4  2  0  0  0  0
  3  5  1  0  0  0  0
  4  6  1  0  0  0  0
  5  6  2  0  0  0  0
  6  7  1  0  0  0  0
  7  8  2  0  0  0  0
  7 10  1  0  0  0  0
  8  9  1  0  0  0  0
  8 14  1  0  0  0  0
  9 12  2  0  0  0  0
  9 13  1  0  0  0  0
 10 11  2  0  0  0  0
 11 14  1  0  0  0  0
  1 15  1  0  0  0  0
  2 16  1  0  0  0  0
  3 17  1  0  0  0  0
  4 18  1  0  0  0  0
  5 19  1  0  0  0  0
 13 20  1  0  0  0  0
M  END
$$$$
frag.vs.061
  -OEChem-01121112253D

 24 25  0     0  0  0  0  0  0999 V2000
    1.8846   -1.0357   -0.1124 C   0  0  0  0  0  0  0  0  0  0  0  0
    0.9928   -1.8829    0.5451 C   0  0  0  0  0  0  0  0  0  0  0  0
    2.7340   -0.2099    0.6240 C   0  0  0  0  0  0  0  0  0  0  0  0
    0.9503   -1.9044    1.9392 C   0  0  0  0  0  0  0  0  0  0  0  0
    2.6915   -0.2314    2.0180 C   0  0  0  0  0  0  0  0  0  0  0  0
    1.7997   -1.0786    2.6757 C   0  0  0  0  0  0  0  0  0  0  0  0
    2.5034   -1.9187    4.9756 C   0  0  0  0  0  0  0  0  0  0  0  0
    1.7561   -1.1004    4.1109 C   0  0  0  0  0  0  0  0  0  0  0  0
    2.0841   -1.5420    6.2239 C   0  0  0  0  0  0  0  0  0  0  0  0
    3.4818   -2.9228    4.6836 C   0  0  0  0  0  0  0  0  0  0  0  0
    2.4283   -1.9652    7.5882 C   0  0  0  0  0  0  0  0  0  0  0  0
    0.9361   -0.2789    4.7725 N   0  0  0  0  0  0  0  0  0  0  0  0
    4.1052   -3.6109    5.5181 O   0  0  0  0  0  0  0  0  0  0  0  0
    1.1487   -0.5640    6.1159 O   0  0  0  0  0  0  0  0  0  0  0  0
    3.7029   -3.0914    3.3422 O   0  0  0  0  0  0  0  0  0  0  0  0
    1.9185   -1.0196   -1.1979 H   0  0  0  0  0  0  0  0  0  0  0  0
    0.3322   -2.5268   -0.0280 H   0  0  0  0  0  0  0  0  0  0  0  0
    3.4291    0.4487    0.1117 H   0  0  0  0  0  0  0  0  0  0  0  0
    0.2495   -2.5704    2.4372 H   0  0  0  0  0  0  0  0  0  0  0  0
    3.3603    0.4184    2.5777 H   0  0  0  0  0  0  0  0  0  0  0  0
    3.2639   -1.3695    7.9974 H   0  0  0  0  0  0  0  0  0  0  0  0
    1.5776   -1.8629    8.2875 H   0  0  0  0  0  0  0  0  0  0  0  0
    2.7277   -3.0289    7.6356 H   0  0  0  0  0  0  0  0  0  0  0  0
    4.3712   -3.7780    3.1316 H   0  0  0  0  0  0  0  0  0  0  0  0
  1  2  1  0  0  0  0
  1  3  2  0  0  0  0
  2  4  2  0  0  0  0
  3  5  1  0  0  0  0
  4  6  1  0  0  0  0
  5  6  2  0  0  0  0
  6  8  1  0  0  0  0
  7  8  1  0  0  0  0
  7  9  2  0  0  0  0
  7 10  1  0  0  0  0
  8 12  2  0  0  0  0
  9 11  1  0  0  0  0
  9 14  1  0  0  0  0
 10 13  2  0  0  0  0
 10 15  1  0  0  0  0
 12 14  1  0  0  0  0
  1 16  1  0  0  0  0
  2 17  1  0  0  0  0
  3 18  1  0  0  0  0
  4 19  1  0  0  0  0
  5 20  1  0  0  0  0
 11 21  1  0  0  0  0
 11 22  1  0  0  0  0
 11 23  1  0  0  0  0
 15 24  1  0  0  0  0
M  END
$$$$
frag.vs.062
  -OEChem-01121112253D

 26 27  0     0  0  0  0  0  0999 V2000
    1.8840   -1.0369   -0.1125 C   0  0  0  0  0  0  0  0  0  0  0  0
    3.0351   -0.7583    0.6243 C   0  0  0  0  0  0  0  0  0  0  0  0
    0.6906   -1.3364    0.5448 C   0  0  0  0  0  0  0  0  0  0  0  0
    2.9930   -0.7791    2.0183 C   0  0  0  0  0  0  0  0  0  0  0  0
    0.6485   -1.3573    1.9389 C   0  0  0  0  0  0  0  0  0  0  0  0
    1.7997   -1.0786    2.6757 C   0  0  0  0  0  0  0  0  0  0  0  0
    2.5036   -1.9186    4.9754 C   0  0  0  0  0  0  0  0  0  0  0  0
    1.7561   -1.1004    4.1109 C   0  0  0  0  0  0  0  0  0  0  0  0
    2.0845   -1.5421    6.2238 C   0  0  0  0  0  0  0  0  0  0  0  0
    2.4314   -1.9655    7.5870 C   0  0  0  0  0  0  0  0  0  0  0  0
    3.5080   -2.9407    4.6345 C   0  0  0  0  0  0  0  0  0  0  0  0
    0.9360   -0.2791    4.7727 N   0  0  0  0  0  0  0  0  0  0  0  0
    4.8668   -2.5017    4.8751 N   0  0  0  0  0  0  0  0  0  0  0  0
    1.1489   -0.5642    6.1161 O   0  0  0  0  0  0  0  0  0  0  0  0
    1.9163   -1.0197   -1.1980 H   0  0  0  0  0  0  0  0  0  0  0  0
    3.9640   -0.5239    0.1127 H   0  0  0  0  0  0  0  0  0  0  0  0
   -0.2058   -1.5521   -0.0290 H   0  0  0  0  0  0  0  0  0  0  0  0
    3.8989   -0.5597    2.5786 H   0  0  0  0  0  0  0  0  0  0  0  0
   -0.2896   -1.5925    2.4363 H   0  0  0  0  0  0  0  0  0  0  0  0
    3.2668   -1.3688    7.9955 H   0  0  0  0  0  0  0  0  0  0  0  0
    1.5818   -1.8652    8.2880 H   0  0  0  0  0  0  0  0  0  0  0  0
    2.7329   -3.0288    7.6335 H   0  0  0  0  0  0  0  0  0  0  0  0
    3.3682   -3.8699    5.2174 H   0  0  0  0  0  0  0  0  0  0  0  0
    3.4593   -3.2414    3.5717 H   0  0  0  0  0  0  0  0  0  0  0  0
    5.6067   -2.9067    4.3327 H   0  0  0  0  0  0  0  0  0  0  0  0
    5.0605   -1.9664    5.7007 H   0  0  0  0  0  0  0  0  0  0  0  0
  1  2  1  0  0  0  0
  1  3  2  0  0  0  0
  2  4  2  0  0  0  0
  3  5  1  0  0  0  0
  4  6  1  0  0  0  0
  5  6  2  0  0  0  0
  6  8  1  0  0  0  0
  7  8  1  0  0  0  0
  7  9  2  0  0  0  0
  7 11  1  0  0  0  0
  8 12  2  0  0  0  0
  9 10  1  0  0  0  0
  9 14  1  0  0  0  0
 11 13  1  0  0  0  0
 12 14  1  0  0  0  0
  1 15  1  0  0  0  0
  2 16  1  0  0  0  0
  3 17  1  0  0  0  0
  4 18  1  0  0  0  0
  5 19  1  0  0  0  0
 10 20  1  0  0  0  0
 10 21  1  0  0  0  0
 10 22  1  0  0  0  0
 11 23  1  0  0  0  0
 11 24  1  0  0  0  0
 13 25  1  0  0  0  0
 13 26  1  0  0  0  0
M  END
$$$$
frag.vs.063
  -OEChem-01121112253D

 25 26  0     0  0  0  0  0  0999 V2000
    1.8840   -1.0369   -0.1125 C   0  0  0  0  0  0  0  0  0  0  0  0
    3.0351   -0.7583    0.6243 C   0  0  0  0  0  0  0  0  0  0  0  0
    0.6906   -1.3364    0.5448 C   0  0  0  0  0  0  0  0  0  0  0  0
    2.9930   -0.7791    2.0183 C   0  0  0  0  0  0  0  0  0  0  0  0
    0.6485   -1.3573    1.9389 C   0  0  0  0  0  0  0  0  0  0  0  0
    1.7997   -1.0786    2.6757 C   0  0  0  0  0  0  0  0  0  0  0  0
    2.5036   -1.9186    4.9754 C   0  0  0  0  0  0  0  0  0  0  0  0
    1.7561   -1.1004    4.1109 C   0  0  0  0  0  0  0  0  0  0  0  0
    2.0845   -1.5421    6.2238 C   0  0  0  0  0  0  0  0  0  0  0  0
    2.4314   -1.9655    7.5870 C   0  0  0  0  0  0  0  0  0  0  0  0
    3.5080   -2.9407    4.6345 C   0  0  0  0  0  0  0  0  0  0  0  0
    0.9360   -0.2791    4.7727 N   0  0  0  0  0  0  0  0  0  0  0  0
    1.1489   -0.5642    6.1161 O   0  0  0  0  0  0  0  0  0  0  0  0
    4.8214   -2.4467    4.9024 O   0  0  0  0  0  0  0  0  0  0  0  0
    1.9163   -1.0197   -1.1980 H   0  0  0  0  0  0  0  0  0  0  0  0
    3.9640   -0.5239    0.1127 H   0  0  0  0  0  0  0  0  0  0  0  0
   -0.2058   -1.5521   -0.0290 H   0  0  0  0  0  0  0  0  0  0  0  0
    3.8989   -0.5597    2.5786 H   0  0  0  0  0  0  0  0  0  0  0  0
   -0.2896   -1.5925    2.4363 H   0  0  0  0  0  0  0  0  0  0  0  0
    3.2668   -1.3688    7.9955 H   0  0  0  0  0  0  0  0  0  0  0  0
    1.5818   -1.8652    8.2880 H   0  0  0  0  0  0  0  0  0  0  0  0
    2.7329   -3.0288    7.6335 H   0  0  0  0  0  0  0  0  0  0  0  0
    3.3724   -3.8718    5.2148 H   0  0  0  0  0  0  0  0  0  0  0  0
    3.4635   -3.2271    3.5678 H   0  0  0  0  0  0  0  0  0  0  0  0
    5.4346   -3.1568    4.6607 H   0  0  0  0  0  0  0  0  0  0  0  0
  1  2  1  0  0  0  0
  1  3  2  0  0  0  0
  2  4  2  0  0  0  0
  3  5  1  0  0  0  0
  4  6  1  0  0  0  0
  5  6  2  0  0  0  0
  6  8  1  0  0  0  0
  7  8  1  0  0  0  0
  7  9  2  0  0  0  0
  7 11  1  0  0  0  0
  8 12  2  0  0  0  0
  9 10  1  0  0  0  0
  9 13  1  0  0  0  0
 11 14  1  0  0  0  0
 12 13  1  0  0  0  0
  1 15  1  0  0  0  0
  2 16  1  0  0  0  0
  3 17  1  0  0  0  0
  4 18  1  0  0  0  0
  5 19  1  0  0  0  0
 10 20  1  0  0  0  0
 10 21  1  0  0  0  0
 10 22  1  0  0  0  0
 11 23  1  0  0  0  0
 11 24  1  0  0  0  0
 14 25  1  0  0  0  0
M  END
$$$$
frag.vs.064
  -OEChem-01121112253D

 19 20  0     0  0  0  0  0  0999 V2000
    1.3879   -0.0684    1.6522 C   0  0  0  0  0  0  0  0  0  0  0  0
    0.2265   -0.4197    0.9733 C   0  0  0  0  0  0  0  0  0  0  0  0
    1.6520   -0.6227    2.8997 C   0  0  0  0  0  0  0  0  0  0  0  0
   -0.6317   -1.3224    1.5803 C   0  0  0  0  0  0  0  0  0  0  0  0
    2.1406   -2.4464    5.3775 C   0  0  0  0  0  0  0  0  0  0  0  0
    0.9513   -2.1183    4.7041 C   0  0  0  0  0  0  0  0  0  0  0  0
    0.7299   -1.5161    3.4206 C   0  0  0  0  0  0  0  0  0  0  0  0
   -0.0332   -2.5125    5.5710 C   0  0  0  0  0  0  0  0  0  0  0  0
   -0.4092   -1.8816    2.7908 N   0  0  0  0  0  0  0  0  0  0  0  0
    1.9113   -3.0016    6.5708 N   0  0  0  0  0  0  0  0  0  0  0  0
   -1.3809   -2.4705    5.5142 N   0  0  0  0  0  0  0  0  0  0  0  0
    0.5271   -3.0412    6.6888 O   0  0  0  0  0  0  0  0  0  0  0  0
    2.0859    0.6359    1.2096 H   0  0  0  0  0  0  0  0  0  0  0  0
    0.0002   -0.0003   -0.0002 H   0  0  0  0  0  0  0  0  0  0  0  0
    2.5566   -0.3530    3.4353 H   0  0  0  0  0  0  0  0  0  0  0  0
   -1.5510   -1.6290    1.0922 H   0  0  0  0  0  0  0  0  0  0  0  0
    3.1630   -2.3082    5.0566 H   0  0  0  0  0  0  0  0  0  0  0  0
   -1.8837   -2.0419    4.7227 H   0  0  0  0  0  0  0  0  0  0  0  0
   -1.9729   -2.7786    6.3001 H   0  0  0  0  0  0  0  0  0  0  0  0
  1  2  1  0  0  0  0
  1  3  2  0  0  0  0
  2  4  2  0  0  0  0
  3  7  1  0  0  0  0
  4  9  1  0  0  0  0
  5  6  1  0  0  0  0
  5 10  2  0  0  0  0
  6  7  1  0  0  0  0
  6  8  2  0  0  0  0
  7  9  2  0  0  0  0
  8 11  1  0  0  0  0
  8 12  1  0  0  0  0
 10 12  1  0  0  0  0
  1 13  1  0  0  0  0
  2 14  1  0  0  0  0
  3 15  1  0  0  0  0
  4 16  1  0  0  0  0
  5 17  1  0  0  0  0
 11 18  1  0  0  0  0
 11 19  1  0  0  0  0
M  END
$$$$
frag.vs.065
  -OEChem-01121112253D

 24 25  0     0  0  0  0  0  0999 V2000
    1.8867   -1.0332   -0.1123 C   0  0  0  0  0  0  0  0  0  0  0  0
    3.0723   -1.0620    0.6220 C   0  0  0  0  0  0  0  0  0  0  0  0
    0.6577   -1.0269    0.5473 C   0  0  0  0  0  0  0  0  0  0  0  0
    3.0288   -1.0848    2.0160 C   0  0  0  0  0  0  0  0  0  0  0  0
    0.6142   -1.0497    1.9413 C   0  0  0  0  0  0  0  0  0  0  0  0
    1.7997   -1.0786    2.6757 C   0  0  0  0  0  0  0  0  0  0  0  0
    2.1966   -1.9606    5.0878 C   0  0  0  0  0  0  0  0  0  0  0  0
    1.7549   -1.1012    4.1171 C   0  0  0  0  0  0  0  0  0  0  0  0
    1.8033   -1.3413    6.2867 C   0  0  0  0  0  0  0  0  0  0  0  0
    2.8945   -3.1936    4.8801 C   0  0  0  0  0  0  0  0  0  0  0  0
    2.0140   -1.8150    7.6651 C   0  0  0  0  0  0  0  0  0  0  0  0
    1.1663   -0.1861    6.0756 N   0  0  0  0  0  0  0  0  0  0  0  0
    2.7799   -3.9499    3.8933 O   0  0  0  0  0  0  0  0  0  0  0  0
    1.1383   -0.0383    4.6941 O   0  0  0  0  0  0  0  0  0  0  0  0
    3.7529   -3.5100    5.8999 O   0  0  0  0  0  0  0  0  0  0  0  0
    1.9207   -1.0148   -1.1978 H   0  0  0  0  0  0  0  0  0  0  0  0
    4.0291   -1.0671    0.1082 H   0  0  0  0  0  0  0  0  0  0  0  0
   -0.2655   -1.0033   -0.0245 H   0  0  0  0  0  0  0  0  0  0  0  0
    3.9617   -1.1045    2.5743 H   0  0  0  0  0  0  0  0  0  0  0  0
   -0.3518   -1.0456    2.4406 H   0  0  0  0  0  0  0  0  0  0  0  0
    2.9683   -1.4424    8.0753 H   0  0  0  0  0  0  0  0  0  0  0  0
    1.2088   -1.4872    8.3466 H   0  0  0  0  0  0  0  0  0  0  0  0
    2.0329   -2.9178    7.7288 H   0  0  0  0  0  0  0  0  0  0  0  0
    4.2368   -4.3530    5.7666 H   0  0  0  0  0  0  0  0  0  0  0  0
  1  2  1  0  0  0  0
  1  3  2  0  0  0  0
  2  4  2  0  0  0  0
  3  5  1  0  0  0  0
  4  6  1  0  0  0  0
  5  6  2  0  0  0  0
  6  8  1  0  0  0  0
  7  8  2  0  0  0  0
  7  9  1  0  0  0  0
  7 10  1  0  0  0  0
  8 14  1  0  0  0  0
  9 11  1  0  0  0  0
  9 12  2  0  0  0  0
 10 13  2  0  0  0  0
 10 15  1  0  0  0  0
 12 14  1  0  0  0  0
  1 16  1  0  0  0  0
  2 17  1  0  0  0  0
  3 18  1  0  0  0  0
  4 19  1  0  0  0  0
  5 20  1  0  0  0  0
 11 21  1  0  0  0  0
 11 22  1  0  0  0  0
 11 23  1  0  0  0  0
 15 24  1  0  0  0  0
M  END
$$$$
frag.vs.066
  -OEChem-01121112253D

 25 26  0     0  0  0  0  0  0999 V2000
    1.8868   -1.0332   -0.1123 C   0  0  0  0  0  0  0  0  0  0  0  0
    3.0722   -1.0655    0.6220 C   0  0  0  0  0  0  0  0  0  0  0  0
    0.6577   -1.0234    0.5473 C   0  0  0  0  0  0  0  0  0  0  0  0
    3.0287   -1.0883    2.0160 C   0  0  0  0  0  0  0  0  0  0  0  0
    0.6142   -1.0462    1.9413 C   0  0  0  0  0  0  0  0  0  0  0  0
    1.7997   -1.0786    2.6757 C   0  0  0  0  0  0  0  0  0  0  0  0
    2.1958   -1.9646    5.0847 C   0  0  0  0  0  0  0  0  0  0  0  0
    1.7549   -1.1012    4.1171 C   0  0  0  0  0  0  0  0  0  0  0  0
    1.8060   -1.3476    6.2859 C   0  0  0  0  0  0  0  0  0  0  0  0
    2.0170   -1.8256    7.6626 C   0  0  0  0  0  0  0  0  0  0  0  0
    2.9106   -3.2398    4.9069 C   0  0  0  0  0  0  0  0  0  0  0  0
    1.1720   -0.1900    6.0791 N   0  0  0  0  0  0  0  0  0  0  0  0
    1.1422   -0.0382    4.6980 O   0  0  0  0  0  0  0  0  0  0  0  0
    4.2918   -3.0784    5.2345 O   0  0  0  0  0  0  0  0  0  0  0  0
    1.9207   -1.0148   -1.1978 H   0  0  0  0  0  0  0  0  0  0  0  0
    4.0290   -1.0733    0.1081 H   0  0  0  0  0  0  0  0  0  0  0  0
   -0.2654   -0.9971   -0.0244 H   0  0  0  0  0  0  0  0  0  0  0  0
    3.9616   -1.1108    2.5742 H   0  0  0  0  0  0  0  0  0  0  0  0
   -0.3517   -1.0394    2.4407 H   0  0  0  0  0  0  0  0  0  0  0  0
    2.9730   -1.4572    8.0728 H   0  0  0  0  0  0  0  0  0  0  0  0
    1.2137   -1.4971    8.3462 H   0  0  0  0  0  0  0  0  0  0  0  0
    2.0325   -2.9287    7.7235 H   0  0  0  0  0  0  0  0  0  0  0  0
    2.5029   -4.0424    5.5487 H   0  0  0  0  0  0  0  0  0  0  0  0
    2.8490   -3.6092    3.8668 H   0  0  0  0  0  0  0  0  0  0  0  0
    4.7069   -3.9433    5.0995 H   0  0  0  0  0  0  0  0  0  0  0  0
  1  2  1  0  0  0  0
  1  3  2  0  0  0  0
  2  4  2  0  0  0  0
  3  5  1  0  0  0  0
  4  6  1  0  0  0  0
  5  6  2  0  0  0  0
  6  8  1  0  0  0  0
  7  8  2  0  0  0  0
  7  9  1  0  0  0  0
  7 11  1  0  0  0  0
  8 13  1  0  0  0  0
  9 10  1  0  0  0  0
  9 12  2  0  0  0  0
 11 14  1  0  0  0  0
 12 13  1  0  0  0  0
  1 15  1  0  0  0  0
  2 16  1  0  0  0  0
  3 17  1  0  0  0  0
  4 18  1  0  0  0  0
  5 19  1  0  0  0  0
 10 20  1  0  0  0  0
 10 21  1  0  0  0  0
 10 22  1  0  0  0  0
 11 23  1  0  0  0  0
 11 24  1  0  0  0  0
 14 25  1  0  0  0  0
M  END
$$$$
frag.vs.067
  -OEChem-01121112253D

 24 25  0     1  0  0  0  0  0999 V2000
   -0.6821    2.8420   -2.0477 C   0  0  0  0  0  0  0  0  0  0  0  0
   -0.9309    1.9489   -0.9571 C   0  0  0  0  0  0  0  0  0  0  0  0
   -0.1454    0.8002   -0.6515 C   0  0  0  0  0  0  0  0  0  0  0  0
   -0.6223    0.1417    0.4634 C   0  0  0  0  0  0  0  0  0  0  0  0
   -1.9730    2.1117   -0.0686 C   0  0  0  0  0  0  0  0  0  0  0  0
    1.0695    0.3070   -1.3699 C   0  0  0  0  0  0  0  0  0  0  0  0
   -0.0235   -1.1160    1.0160 C   0  0  0  0  0  0  0  0  0  0  0  0
    1.4149   -1.1404   -0.9611 C   0  0  0  0  0  0  0  0  0  0  0  0
    1.8576   -2.6261    0.8963 C   0  0  0  0  0  0  0  0  0  0  0  0
   -0.4804    3.5660   -2.9319 N   0  0  0  0  0  0  0  0  0  0  0  0
    1.3535   -1.3102    0.5055 N   0  0  2  0  0  0  0  0  0  0  0  0
   -2.9088    3.0967   -0.0677 N   0  0  0  0  0  0  0  0  0  0  0  0
   -2.0004    0.8833    1.1270 S   0  0  0  0  0  0  0  0  0  0  0  0
    0.9189    0.3474   -2.4546 H   0  0  0  0  0  0  0  0  0  0  0  0
    1.9123    0.9655   -1.1247 H   0  0  0  0  0  0  0  0  0  0  0  0
    0.0064   -1.0624    2.1110 H   0  0  0  0  0  0  0  0  0  0  0  0
   -0.6644   -1.9618    0.7337 H   0  0  0  0  0  0  0  0  0  0  0  0
    0.7279   -1.8415   -1.4546 H   0  0  0  0  0  0  0  0  0  0  0  0
    2.4241   -1.3630   -1.3289 H   0  0  0  0  0  0  0  0  0  0  0  0
    2.8736   -2.7666    0.5183 H   0  0  0  0  0  0  0  0  0  0  0  0
    1.2180   -3.4128    0.4870 H   0  0  0  0  0  0  0  0  0  0  0  0
    1.8717   -2.7172    1.9857 H   0  0  0  0  0  0  0  0  0  0  0  0
   -2.8820    3.8671   -0.7452 H   0  0  0  0  0  0  0  0  0  0  0  0
   -3.6228    3.1617    0.6665 H   0  0  0  0  0  0  0  0  0  0  0  0
  1  2  1  0  0  0  0
  1 10  3  0  0  0  0
  2  3  1  0  0  0  0
  2  5  2  0  0  0  0
  3  4  2  0  0  0  0
  3  6  1  0  0  0  0
  4  7  1  0  0  0  0
  4 13  1  0  0  0  0
  5 12  1  0  0  0  0
  5 13  1  0  0  0  0
  6  8  1  0  0  0  0
  7 11  1  0  0  0  0
  8 11  1  0  0  0  0
  9 11  1  0  0  0  0
  6 14  1  0  0  0  0
  6 15  1  0  0  0  0
  7 16  1  0  0  0  0
  7 17  1  0  0  0  0
  8 18  1  0  0  0  0
  8 19  1  0  0  0  0
  9 20  1  0  0  0  0
  9 21  1  0  0  0  0
  9 22  1  0  0  0  0
 12 23  1  0  0  0  0
 12 24  1  0  0  0  0
M  END
$$$$
frag.vs.068_0
  -OEChem-01121112253D

 23 24  0     1  0  0  0  0  0999 V2000
   -0.5857   -1.6422   -1.2816 C   0  0  0  0  0  0  0  0  0  0  0  0
   -0.1764   -1.0533   -0.1479 C   0  0  0  0  0  0  0  0  0  0  0  0
    1.6377   -3.9950    1.4669 C   0  0  0  0  0  0  0  0  0  0  0  0
   -1.0549   -3.1008    0.4423 C   0  0  0  0  0  0  0  0  0  0  0  0
    0.8388   -3.6359   -0.9068 C   0  0  0  0  0  0  0  0  0  0  0  0
   -0.6214   -3.1309   -1.0256 C   0  0  2  0  0  0  0  0  0  0  0  0
    0.0819   -2.1522    0.8587 C   0  0  1  0  0  0  0  0  0  0  0  0
    1.3213   -2.9635    0.4101 C   0  0  1  0  0  0  0  0  0  0  0  0
    2.5891   -2.1278    0.2117 C   0  0  0  0  0  0  0  0  0  0  0  0
    1.0917   -4.0726    2.5575 O   0  0  0  0  0  0  0  0  0  0  0  0
    2.6182   -4.8294    1.0431 O   0  0  0  0  0  0  0  0  0  0  0  0
   -0.8047   -1.1522   -2.2166 H   0  0  0  0  0  0  0  0  0  0  0  0
   -0.0008    0.0001    0.0000 H   0  0  0  0  0  0  0  0  0  0  0  0
   -2.0556   -2.6743    0.5922 H   0  0  0  0  0  0  0  0  0  0  0  0
   -1.0191   -4.0829    0.9254 H   0  0  0  0  0  0  0  0  0  0  0  0
    0.8539   -4.7298   -0.8416 H   0  0  0  0  0  0  0  0  0  0  0  0
    1.4347   -3.3405   -1.7782 H   0  0  0  0  0  0  0  0  0  0  0  0
   -1.2707   -3.6966   -1.6944 H   0  0  0  0  0  0  0  0  0  0  0  0
    0.0427   -1.8430    1.9048 H   0  0  0  0  0  0  0  0  0  0  0  0
    2.4102   -1.3670   -0.5443 H   0  0  0  0  0  0  0  0  0  0  0  0
    3.4037   -2.7715   -0.1114 H   0  0  0  0  0  0  0  0  0  0  0  0
    2.8599   -1.6473    1.1489 H   0  0  0  0  0  0  0  0  0  0  0  0
    2.8398   -5.5066    1.7173 H   0  0  0  0  0  0  0  0  0  0  0  0
  1  2  2  0  0  0  0
  1  6  1  0  0  0  0
  2  7  1  0  0  0  0
  3  8  1  0  0  0  0
  3 10  2  0  0  0  0
  3 11  1  0  0  0  0
  4  6  1  0  0  0  0
  4  7  1  0  0  0  0
  5  6  1  0  0  0  0
  5  8  1  0  0  0  0
  7  8  1  0  0  0  0
  8  9  1  0  0  0  0
  1 12  1  0  0  0  0
  2 13  1  0  0  0  0
  4 14  1  0  0  0  0
  4 15  1  0  0  0  0
  5 16  1  0  0  0  0
  5 17  1  0  0  0  0
  6 18  1  0  0  0  0
  7 19  1  0  0  0  0
  9 20  1  0  0  0  0
  9 21  1  0  0  0  0
  9 22  1  0  0  0  0
 11 23  1  0  0  0  0
M  END
$$$$
frag.vs.068_1
  -OEChem-01121112253D

 23 24  0     1  0  0  0  0  0999 V2000
    2.1162   -0.4463    0.0589 C   0  0  0  0  0  0  0  0  0  0  0  0
    0.9297   -0.0509    0.5436 C   0  0  0  0  0  0  0  0  0  0  0  0
    1.4647   -0.8580    4.2454 C   0  0  0  0  0  0  0  0  0  0  0  0
    2.5426    0.7946    1.9552 C   0  0  0  0  0  0  0  0  0  0  0  0
    2.7495   -1.5717    2.1743 C   0  0  0  0  0  0  0  0  0  0  0  0
    3.1002   -0.4163    1.2043 C   0  0  1  0  0  0  0  0  0  0  0  0
    1.1174    0.2200    2.0197 C   0  0  2  0  0  0  0  0  0  0  0  0
    1.3699   -1.1256    2.7632 C   0  0  2  0  0  0  0  0  0  0  0  0
    0.2761   -2.1760    2.5605 C   0  0  0  0  0  0  0  0  0  0  0  0
    1.2213    0.2124    4.7823 O   0  0  0  0  0  0  0  0  0  0  0  0
    1.8617   -1.9716    4.9084 O   0  0  0  0  0  0  0  0  0  0  0  0
    2.3215   -0.7689   -0.9491 H   0  0  0  0  0  0  0  0  0  0  0  0
    0.0000    0.0002   -0.0000 H   0  0  0  0  0  0  0  0  0  0  0  0
    3.0080    0.9499    2.9342 H   0  0  0  0  0  0  0  0  0  0  0  0
    2.6087    1.7305    1.3848 H   0  0  0  0  0  0  0  0  0  0  0  0
    2.6925   -2.5318    1.6484 H   0  0  0  0  0  0  0  0  0  0  0  0
    3.5169   -1.6563    2.9520 H   0  0  0  0  0  0  0  0  0  0  0  0
    4.1469   -0.3418    0.9082 H   0  0  0  0  0  0  0  0  0  0  0  0
    0.3856    0.8965    2.4649 H   0  0  0  0  0  0  0  0  0  0  0  0
    0.1743   -2.3992    1.5006 H   0  0  0  0  0  0  0  0  0  0  0  0
   -0.6705   -1.7972    2.9398 H   0  0  0  0  0  0  0  0  0  0  0  0
    0.5386   -3.0863    3.0953 H   0  0  0  0  0  0  0  0  0  0  0  0
    1.9313   -1.8174    5.8747 H   0  0  0  0  0  0  0  0  0  0  0  0
  1  2  2  0  0  0  0
  1  6  1  0  0  0  0
  2  7  1  0  0  0  0
  3  8  1  0  0  0  0
  3 10  2  0  0  0  0
  3 11  1  0  0  0  0
  4  6  1  0  0  0  0
  4  7  1  0  0  0  0
  5  6  1  0  0  0  0
  5  8  1  0  0  0  0
  7  8  1  0  0  0  0
  8  9  1  0  0  0  0
  1 12  1  0  0  0  0
  2 13  1  0  0  0  0
  4 14  1  0  0  0  0
  4 15  1  0  0  0  0
  5 16  1  0  0  0  0
  5 17  1  0  0  0  0
  6 18  1  0  0  0  0
  7 19  1  0  0  0  0
  9 20  1  0  0  0  0
  9 21  1  0  0  0  0
  9 22  1  0  0  0  0
 11 23  1  0  0  0  0
M  END
$$$$
frag.vs.069_0
  -OEChem-01121112253D

 21 22  0     1  0  0  0  0  0999 V2000
    1.9882    0.8116   -0.2224 C   0  0  0  0  0  0  0  0  0  0  0  0
    0.5853    0.8861   -0.2313 C   0  0  0  0  0  0  0  0  0  0  0  0
    2.7601    1.9359   -0.5144 C   0  0  0  0  0  0  0  0  0  0  0  0
   -0.0659    2.0866   -0.5354 C   0  0  0  0  0  0  0  0  0  0  0  0
    2.0879    3.1075   -0.8095 C   0  0  0  0  0  0  0  0  0  0  0  0
    0.7008    3.2043   -0.8292 C   0  0  0  0  0  0  0  0  0  0  0  0
    2.6392    4.4141   -1.1320 C   0  0  0  0  0  0  0  0  0  0  0  0
   -0.5338    4.5747   -2.4812 C   0  0  0  0  0  0  0  0  0  0  0  0
    1.5122    5.4060   -1.3089 C   0  0  0  0  0  0  0  0  0  0  0  0
    0.2236    4.5739   -1.1916 C   0  0  2  0  0  0  0  0  0  0  0  0
    3.8299    4.6522   -1.2198 O   0  0  0  0  0  0  0  0  0  0  0  0
   -0.7843    3.5821   -3.1485 O   0  0  0  0  0  0  0  0  0  0  0  0
   -0.9068    5.8339   -2.8166 O   0  0  0  0  0  0  0  0  0  0  0  0
    2.4747   -0.1302    0.0168 H   0  0  0  0  0  0  0  0  0  0  0  0
    0.0005   -0.0001    0.0006 H   0  0  0  0  0  0  0  0  0  0  0  0
    3.8427    1.8835   -0.5060 H   0  0  0  0  0  0  0  0  0  0  0  0
   -1.1499    2.1341   -0.5411 H   0  0  0  0  0  0  0  0  0  0  0  0
    1.5690    6.1429   -0.5005 H   0  0  0  0  0  0  0  0  0  0  0  0
    1.6096    5.9124   -2.2741 H   0  0  0  0  0  0  0  0  0  0  0  0
   -0.4243    4.9796   -0.4070 H   0  0  0  0  0  0  0  0  0  0  0  0
   -1.4040    5.8558   -3.6620 H   0  0  0  0  0  0  0  0  0  0  0  0
  1  2  1  0  0  0  0
  1  3  2  0  0  0  0
  2  4  2  0  0  0  0
  3  5  1  0  0  0  0
  4  6  1  0  0  0  0
  5  6  2  0  0  0  0
  5  7  1  0  0  0  0
  6 10  1  0  0  0  0
  7  9  1  0  0  0  0
  7 11  2  0  0  0  0
  8 10  1  0  0  0  0
  8 12  2  0  0  0  0
  8 13  1  0  0  0  0
  9 10  1  0  0  0  0
  1 14  1  0  0  0  0
  2 15  1  0  0  0  0
  3 16  1  0  0  0  0
  4 17  1  0  0  0  0
  9 18  1  0  0  0  0
  9 19  1  0  0  0  0
 10 20  1  0  0  0  0
 13 21  1  0  0  0  0
M  END
$$$$
frag.vs.069_1
  -OEChem-01121112253D

 21 22  0     1  0  0  0  0  0999 V2000
    2.1452   -0.2293   -0.0818 C   0  0  0  0  0  0  0  0  0  0  0  0
    0.9488    0.5022   -0.1685 C   0  0  0  0  0  0  0  0  0  0  0  0
    3.3744    0.3936   -0.2956 C   0  0  0  0  0  0  0  0  0  0  0  0
    0.9655    1.8689   -0.4676 C   0  0  0  0  0  0  0  0  0  0  0  0
    3.3581    1.7443   -0.5904 C   0  0  0  0  0  0  0  0  0  0  0  0
    2.1876    2.4900   -0.6768 C   0  0  0  0  0  0  0  0  0  0  0  0
    4.4805    2.6264   -0.8684 C   0  0  0  0  0  0  0  0  0  0  0  0
    2.0102    4.8272    0.1211 C   0  0  0  0  0  0  0  0  0  0  0  0
    3.9644    4.0068   -1.2049 C   0  0  0  0  0  0  0  0  0  0  0  0
    2.4427    3.9286   -0.9933 C   0  0  1  0  0  0  0  0  0  0  0  0
    5.6471    2.2786   -0.8475 O   0  0  0  0  0  0  0  0  0  0  0  0
    1.4687    4.4563    1.1519 O   0  0  0  0  0  0  0  0  0  0  0  0
    2.2985    6.1200   -0.1670 O   0  0  0  0  0  0  0  0  0  0  0  0
    2.1096   -1.2899    0.1517 H   0  0  0  0  0  0  0  0  0  0  0  0
   -0.0002    0.0001   -0.0005 H   0  0  0  0  0  0  0  0  0  0  0  0
    4.2995   -0.1678   -0.2340 H   0  0  0  0  0  0  0  0  0  0  0  0
    0.0365    2.4261   -0.5307 H   0  0  0  0  0  0  0  0  0  0  0  0
    4.4490    4.7513   -0.5660 H   0  0  0  0  0  0  0  0  0  0  0  0
    4.1969    4.2168   -2.2544 H   0  0  0  0  0  0  0  0  0  0  0  0
    1.9136    4.2258   -1.9053 H   0  0  0  0  0  0  0  0  0  0  0  0
    2.0204    6.7264    0.5521 H   0  0  0  0  0  0  0  0  0  0  0  0
  1  2  1  0  0  0  0
  1  3  2  0  0  0  0
  2  4  2  0  0  0  0
  3  5  1  0  0  0  0
  4  6  1  0  0  0  0
  5  6  2  0  0  0  0
  5  7  1  0  0  0  0
  6 10  1  0  0  0  0
  7  9  1  0  0  0  0
  7 11  2  0  0  0  0
  8 10  1  0  0  0  0
  8 12  2  0  0  0  0
  8 13  1  0  0  0  0
  9 10  1  0  0  0  0
  1 14  1  0  0  0  0
  2 15  1  0  0  0  0
  3 16  1  0  0  0  0
  4 17  1  0  0  0  0
  9 18  1  0  0  0  0
  9 19  1  0  0  0  0
 10 20  1  0  0  0  0
 13 21  1  0  0  0  0
M  END
$$$$
frag.vs.070
  -OEChem-01121112253D

 21 22  0     0  0  0  0  0  0999 V2000
   -0.3213   -1.0034   -0.2637 C   0  0  0  0  0  0  0  0  0  0  0  0
   -1.8755   -2.4744   -1.3885 C   0  0  0  0  0  0  0  0  0  0  0  0
    0.4049   -2.1069    0.1823 C   0  0  0  0  0  0  0  0  0  0  0  0
   -1.1459   -3.5863   -0.9553 C   0  0  0  0  0  0  0  0  0  0  0  0
   -0.0141   -3.3949   -0.1538 C   0  0  0  0  0  0  0  0  0  0  0  0
   -1.4617   -1.1868   -1.0451 C   0  0  0  0  0  0  0  0  0  0  0  0
    1.5884   -1.8833    1.0023 C   0  0  0  0  0  0  0  0  0  0  0  0
   -1.5803   -4.9762   -1.3080 C   0  0  0  0  0  0  0  0  0  0  0  0
    0.1202   -5.7136    0.1214 C   0  0  0  0  0  0  0  0  0  0  0  0
    2.0127   -2.6538    1.8675 O   0  0  0  0  0  0  0  0  0  0  0  0
    0.7422   -4.4383    0.3157 O   0  0  0  0  0  0  0  0  0  0  0  0
   -0.4881   -5.8812   -1.1572 O   0  0  0  0  0  0  0  0  0  0  0  0
    2.2034   -0.7050    0.7133 O   0  0  0  0  0  0  0  0  0  0  0  0
   -2.1609   -0.1252   -1.4677 F   0  0  0  0  0  0  0  0  0  0  0  0
   -0.0100    0.0059   -0.0067 H   0  0  0  0  0  0  0  0  0  0  0  0
   -2.7658   -2.6039   -1.9981 H   0  0  0  0  0  0  0  0  0  0  0  0
   -2.4088   -5.2944   -0.6649 H   0  0  0  0  0  0  0  0  0  0  0  0
   -1.9060   -5.0272   -2.3520 H   0  0  0  0  0  0  0  0  0  0  0  0
    0.9043   -6.4715    0.2120 H   0  0  0  0  0  0  0  0  0  0  0  0
   -0.6068   -5.8989    0.9230 H   0  0  0  0  0  0  0  0  0  0  0  0
    3.0023   -0.5454    1.2597 H   0  0  0  0  0  0  0  0  0  0  0  0
  1  3  1  0  0  0  0
  1  6  2  0  0  0  0
  2  4  2  0  0  0  0
  2  6  1  0  0  0  0
  3  5  2  0  0  0  0
  3  7  1  0  0  0  0
  4  5  1  0  0  0  0
  4  8  1  0  0  0  0
  5 11  1  0  0  0  0
  6 14  1  0  0  0  0
  7 10  2  0  0  0  0
  7 13  1  0  0  0  0
  8 12  1  0  0  0  0
  9 11  1  0  0  0  0
  9 12  1  0  0  0  0
  1 15  1  0  0  0  0
  2 16  1  0  0  0  0
  8 17  1  0  0  0  0
  8 18  1  0  0  0  0
  9 19  1  0  0  0  0
  9 20  1  0  0  0  0
 13 21  1  0  0  0  0
M  END
$$$$
frag.vs.071
  -OEChem-01121112253D

 18 19  0     0  0  0  0  0  0999 V2000
    1.0931   -1.0042    1.5622 C   0  0  0  0  0  0  0  0  0  0  0  0
    0.7257   -0.7746    0.2326 C   0  0  0  0  0  0  0  0  0  0  0  0
    2.2183   -2.5362   -0.5319 C   0  0  0  0  0  0  0  0  0  0  0  0
    2.5601   -2.7380    0.7924 C   0  0  0  0  0  0  0  0  0  0  0  0
    2.0185   -1.9978    1.8233 C   0  0  0  0  0  0  0  0  0  0  0  0
    1.2849   -1.5364   -0.8079 C   0  0  0  0  0  0  0  0  0  0  0  0
    3.4952   -3.7028    1.3486 C   0  0  0  0  0  0  0  0  0  0  0  0
    2.5792   -2.4493    3.1093 C   0  0  0  0  0  0  0  0  0  0  0  0
    0.8980   -1.2862   -2.1423 N   0  0  0  0  0  0  0  0  0  0  0  0
    4.1533   -4.5171    0.7326 O   0  0  0  0  0  0  0  0  0  0  0  0
    3.4843   -3.5076    2.7049 O   0  0  0  0  0  0  0  0  0  0  0  0
    0.6598   -0.4152    2.3633 H   0  0  0  0  0  0  0  0  0  0  0  0
   -0.0012    0.0035    0.0111 H   0  0  0  0  0  0  0  0  0  0  0  0
    2.6589   -3.1324   -1.3240 H   0  0  0  0  0  0  0  0  0  0  0  0
    3.1557   -1.6692    3.6133 H   0  0  0  0  0  0  0  0  0  0  0  0
    1.8205   -2.8721    3.7732 H   0  0  0  0  0  0  0  0  0  0  0  0
    0.1945   -0.6003   -2.3244 H   0  0  0  0  0  0  0  0  0  0  0  0
    1.2645   -1.8633   -2.8712 H   0  0  0  0  0  0  0  0  0  0  0  0
  1  2  1  0  0  0  0
  1  5  2  0  0  0  0
  2  6  2  0  0  0  0
  3  4  2  0  0  0  0
  3  6  1  0  0  0  0
  4  5  1  0  0  0  0
  4  7  1  0  0  0  0
  5  8  1  0  0  0  0
  6  9  1  0  0  0  0
  7 10  2  0  0  0  0
  7 11  1  0  0  0  0
  8 11  1  0  0  0  0
  1 12  1  0  0  0  0
  2 13  1  0  0  0  0
  3 14  1  0  0  0  0
  8 15  1  0  0  0  0
  8 16  1  0  0  0  0
  9 17  1  0  0  0  0
  9 18  1  0  0  0  0
M  END
$$$$
frag.vs.072
  -OEChem-01121112253D

 31 32  0     0  0  0  0  0  0999 V2000
   -1.8022   -0.7245    0.9247 C   0  0  0  0  0  0  0  0  0  0  0  0
   -0.7671    0.1975    0.7446 C   0  0  0  0  0  0  0  0  0  0  0  0
   -1.6773    1.6439    2.4698 C   0  0  0  0  0  0  0  0  0  0  0  0
   -4.5471   -0.4724    3.2738 C   0  0  0  0  0  0  0  0  0  0  0  0
   -2.7304    0.7292    2.6692 C   0  0  0  0  0  0  0  0  0  0  0  0
   -3.8586    0.6897    3.5356 C   0  0  0  0  0  0  0  0  0  0  0  0
   -2.7685   -0.4315    1.8936 C   0  0  0  0  0  0  0  0  0  0  0  0
   -0.7036    1.3640    1.5041 C   0  0  0  0  0  0  0  0  0  0  0  0
   -4.3615    4.0653    4.9764 C   0  0  0  0  0  0  0  0  0  0  0  0
   -5.7761    3.0738    3.3066 C   0  0  0  0  0  0  0  0  0  0  0  0
    0.3272    3.4183    2.1147 C   0  0  0  0  0  0  0  0  0  0  0  0
   -4.2324    1.7063    4.5394 C   0  0  0  0  0  0  0  0  0  0  0  0
   -3.8818   -1.1421    2.2822 N   0  0  0  0  0  0  0  0  0  0  0  0
   -4.4627    3.0113    3.9594 N   0  0  0  0  0  0  0  0  0  0  0  0
    0.3184    2.2438    1.3063 O   0  0  0  0  0  0  0  0  0  0  0  0
   -1.8509   -1.6321    0.3324 H   0  0  0  0  0  0  0  0  0  0  0  0
   -0.0035   -0.0052   -0.0029 H   0  0  0  0  0  0  0  0  0  0  0  0
   -1.6190    2.5560    3.0577 H   0  0  0  0  0  0  0  0  0  0  0  0
   -5.4502   -0.8835    3.7031 H   0  0  0  0  0  0  0  0  0  0  0  0
   -3.3848    4.0229    5.4655 H   0  0  0  0  0  0  0  0  0  0  0  0
   -5.1399    3.9361    5.7333 H   0  0  0  0  0  0  0  0  0  0  0  0
   -4.4814    5.0490    4.5146 H   0  0  0  0  0  0  0  0  0  0  0  0
   -5.8564    2.2907    2.5482 H   0  0  0  0  0  0  0  0  0  0  0  0
   -5.9129    4.0457    2.8248 H   0  0  0  0  0  0  0  0  0  0  0  0
   -6.5715    2.9329    4.0435 H   0  0  0  0  0  0  0  0  0  0  0  0
    1.1931    4.0329    1.8564 H   0  0  0  0  0  0  0  0  0  0  0  0
    0.3695    3.1354    3.1695 H   0  0  0  0  0  0  0  0  0  0  0  0
   -0.5879    3.9853    1.9279 H   0  0  0  0  0  0  0  0  0  0  0  0
   -5.1551    1.4301    5.0797 H   0  0  0  0  0  0  0  0  0  0  0  0
   -3.4543    1.8363    5.3119 H   0  0  0  0  0  0  0  0  0  0  0  0
   -4.1663   -2.0294    1.8909 H   0  0  0  0  0  0  0  0  0  0  0  0
  1  2  1  0  0  0  0
  1  7  2  0  0  0  0
  2  8  2  0  0  0  0
  3  5  2  0  0  0  0
  3  8  1  0  0  0  0
  4  6  2  0  0  0  0
  4 13  1  0  0  0  0
  5  6  1  0  0  0  0
  5  7  1  0  0  0  0
  6 12  1  0  0  0  0
  7 13  1  0  0  0  0
  8 15  1  0  0  0  0
  9 14  1  0  0  0  0
 10 14  1  0  0  0  0
 11 15  1  0  0  0  0
 12 14  1  0  0  0  0
  1 16  1  0  0  0  0
  2 17  1  0  0  0  0
  3 18  1  0  0  0  0
  4 19  1  0  0  0  0
  9 20  1  0  0  0  0
  9 21  1  0  0  0  0
  9 22  1  0  0  0  0
 10 23  1  0  0  0  0
 10 24  1  0  0  0  0
 10 25  1  0  0  0  0
 11 26  1  0  0  0  0
 11 27  1  0  0  0  0
 11 28  1  0  0  0  0
 12 29  1  0  0  0  0
 12 30  1  0  0  0  0
 13 31  1  0  0  0  0
M  END
$$$$
frag.vs.073
  -OEChem-01121112253D

 17 18  0     0  0  0  0  0  0999 V2000
   -0.8813    0.2583    1.9631 C   0  0  0  0  0  0  0  0  0  0  0  0
   -0.5992   -0.4828    0.7715 C   0  0  0  0  0  0  0  0  0  0  0  0
   -1.6420   -0.2417    3.0387 C   0  0  0  0  0  0  0  0  0  0  0  0
   -1.0524   -1.8004    0.5400 C   0  0  0  0  0  0  0  0  0  0  0  0
   -2.0701   -1.5355    2.7778 C   0  0  0  0  0  0  0  0  0  0  0  0
   -1.8147   -2.3229    1.5993 C   0  0  0  0  0  0  0  0  0  0  0  0
   -2.8242   -2.3148    3.6012 C   0  0  0  0  0  0  0  0  0  0  0  0
   -3.3918   -2.1198    4.8907 C   0  0  0  0  0  0  0  0  0  0  0  0
   -2.4075   -3.5218    1.7450 N   0  0  0  0  0  0  0  0  0  0  0  0
   -3.3030   -1.0884    5.5989 O   0  0  0  0  0  0  0  0  0  0  0  0
   -3.0297   -3.5088    2.9859 O   0  0  0  0  0  0  0  0  0  0  0  0
   -4.0972   -3.2040    5.3536 O   0  0  0  0  0  0  0  0  0  0  0  0
   -0.4821    1.2695    2.0400 H   0  0  0  0  0  0  0  0  0  0  0  0
    0.0005   -0.0003    0.0002 H   0  0  0  0  0  0  0  0  0  0  0  0
   -1.8473    0.3312    3.9319 H   0  0  0  0  0  0  0  0  0  0  0  0
   -0.8291   -2.3430   -0.3688 H   0  0  0  0  0  0  0  0  0  0  0  0
   -4.4935   -3.0792    6.2422 H   0  0  0  0  0  0  0  0  0  0  0  0
  1  2  1  0  0  0  0
  1  3  2  0  0  0  0
  2  4  2  0  0  0  0
  3  5  1  0  0  0  0
  4  6  1  0  0  0  0
  5  6  1  0  0  0  0
  5  7  2  0  0  0  0
  6  9  2  0  0  0  0
  7  8  1  0  0  0  0
  7 11  1  0  0  0  0
  8 10  2  0  0  0  0
  8 12  1  0  0  0  0
  9 11  1  0  0  0  0
  1 13  1  0  0  0  0
  2 14  1  0  0  0  0
  3 15  1  0  0  0  0
  4 16  1  0  0  0  0
 12 17  1  0  0  0  0
M  END
$$$$
frag.vs.074
  -OEChem-01121112253D

 25 26  0     0  0  0  0  0  0999 V2000
   -2.1827    2.4837   -0.8519 C   0  0  0  0  0  0  0  0  0  0  0  0
   -0.9828    1.8432   -0.5132 C   0  0  0  0  0  0  0  0  0  0  0  0
   -2.1012   -0.3134   -0.3361 C   0  0  0  0  0  0  0  0  0  0  0  0
   -5.3737    0.7659   -1.1396 C   0  0  0  0  0  0  0  0  0  0  0  0
   -3.3574    1.7156   -0.9335 C   0  0  0  0  0  0  0  0  0  0  0  0
   -4.7209    1.9732   -1.2341 C   0  0  0  0  0  0  0  0  0  0  0  0
   -3.2786    0.3511   -0.6747 C   0  0  0  0  0  0  0  0  0  0  0  0
   -0.9455    0.4696   -0.2604 C   0  0  0  0  0  0  0  0  0  0  0  0
   -5.0478    3.6558   -3.0170 C   0  0  0  0  0  0  0  0  0  0  0  0
    0.2178   -1.5237    0.3134 C   0  0  0  0  0  0  0  0  0  0  0  0
   -5.3273    3.2724   -1.5793 C   0  0  0  0  0  0  0  0  0  0  0  0
   -4.3233    3.0136   -3.7669 O   0  0  0  0  0  0  0  0  0  0  0  0
   -4.5075   -0.2244   -0.8009 O   0  0  0  0  0  0  0  0  0  0  0  0
   -5.6488    4.8172   -3.3782 O   0  0  0  0  0  0  0  0  0  0  0  0
    0.2404   -0.1200    0.0665 O   0  0  0  0  0  0  0  0  0  0  0  0
   -2.1960    3.5521   -1.0448 H   0  0  0  0  0  0  0  0  0  0  0  0
   -0.0705    2.4316   -0.4478 H   0  0  0  0  0  0  0  0  0  0  0  0
   -2.0864   -1.3796   -0.1417 H   0  0  0  0  0  0  0  0  0  0  0  0
   -6.4005    0.4590   -1.2767 H   0  0  0  0  0  0  0  0  0  0  0  0
    1.2249   -1.8668    0.5628 H   0  0  0  0  0  0  0  0  0  0  0  0
   -0.1466   -2.0451   -0.5753 H   0  0  0  0  0  0  0  0  0  0  0  0
   -0.4519   -1.7263    1.1526 H   0  0  0  0  0  0  0  0  0  0  0  0
   -4.9892    4.0894   -0.9193 H   0  0  0  0  0  0  0  0  0  0  0  0
   -6.4243    3.2614   -1.4560 H   0  0  0  0  0  0  0  0  0  0  0  0
   -5.4649    5.1179   -4.2937 H   0  0  0  0  0  0  0  0  0  0  0  0
  1  2  2  0  0  0  0
  1  5  1  0  0  0  0
  2  8  1  0  0  0  0
  3  7  1  0  0  0  0
  3  8  2  0  0  0  0
  4  6  2  0  0  0  0
  4 13  1  0  0  0  0
  5  6  1  0  0  0  0
  5  7  2  0  0  0  0
  6 11  1  0  0  0  0
  7 13  1  0  0  0  0
  8 15  1  0  0  0  0
  9 11  1  0  0  0  0
  9 12  2  0  0  0  0
  9 14  1  0  0  0  0
 10 15  1  0  0  0  0
  1 16  1  0  0  0  0
  2 17  1  0  0  0  0
  3 18  1  0  0  0  0
  4 19  1  0  0  0  0
 10 20  1  0  0  0  0
 10 21  1  0  0  0  0
 10 22  1  0  0  0  0
 11 23  1  0  0  0  0
 11 24  1  0  0  0  0
 14 25  1  0  0  0  0
M  END
$$$$
frag.vs.075
  -OEChem-01121112253D

 21 22  0     0  0  0  0  0  0999 V2000
    0.7491    0.1873    0.7554 C   0  0  0  0  0  0  0  0  0  0  0  0
    2.5222    0.4978    2.0677 C   0  0  0  0  0  0  0  0  0  0  0  0
    2.1283    0.1368    0.7611 C   0  0  0  0  0  0  0  0  0  0  0  0
    1.3585    0.7341    2.7604 C   0  0  0  0  0  0  0  0  0  0  0  0
    3.8074    0.6354    2.7184 C   0  0  0  0  0  0  0  0  0  0  0  0
    2.9373   -0.2165   -0.3679 C   0  0  0  0  0  0  0  0  0  0  0  0
    1.2102    1.1325    4.1749 C   0  0  0  0  0  0  0  0  0  0  0  0
    3.7760    1.1522    4.1601 C   0  0  0  0  0  0  0  0  0  0  0  0
    2.4999    0.7398    4.9191 C   0  0  0  0  0  0  0  0  0  0  0  0
    4.8642    0.4124    2.1354 O   0  0  0  0  0  0  0  0  0  0  0  0
    4.1836   -0.2710   -0.3936 O   0  0  0  0  0  0  0  0  0  0  0  0
    0.2687    0.5532    1.9779 O   0  0  0  0  0  0  0  0  0  0  0  0
    2.2058   -0.5102   -1.4878 O   0  0  0  0  0  0  0  0  0  0  0  0
   -0.0029    0.0003    0.0017 H   0  0  0  0  0  0  0  0  0  0  0  0
    1.0593    2.2160    4.2360 H   0  0  0  0  0  0  0  0  0  0  0  0
    0.3464    0.6428    4.6358 H   0  0  0  0  0  0  0  0  0  0  0  0
    4.6525    0.7592    4.6867 H   0  0  0  0  0  0  0  0  0  0  0  0
    3.8568    2.2446    4.1254 H   0  0  0  0  0  0  0  0  0  0  0  0
    2.4997    1.1870    5.9195 H   0  0  0  0  0  0  0  0  0  0  0  0
    2.5128   -0.3500    5.0555 H   0  0  0  0  0  0  0  0  0  0  0  0
    2.7506   -0.7542   -2.2663 H   0  0  0  0  0  0  0  0  0  0  0  0
  1  3  2  0  0  0  0
  1 12  1  0  0  0  0
  2  3  1  0  0  0  0
  2  4  2  0  0  0  0
  2  5  1  0  0  0  0
  3  6  1  0  0  0  0
  4  7  1  0  0  0  0
  4 12  1  0  0  0  0
  5  8  1  0  0  0  0
  5 10  2  0  0  0  0
  6 11  2  0  0  0  0
  6 13  1  0  0  0  0
  7  9  1  0  0  0  0
  8  9  1  0  0  0  0
  1 14  1  0  0  0  0
  7 15  1  0  0  0  0
  7 16  1  0  0  0  0
  8 17  1  0  0  0  0
  8 18  1  0  0  0  0
  9 19  1  0  0  0  0
  9 20  1  0  0  0  0
 13 21  1  0  0  0  0
M  END
$$$$
frag.vs.076
  -OEChem-01121112253D

 24 25  0     0  0  0  0  0  0999 V2000
    2.0839    0.3075    0.4417 C   0  0  0  0  0  0  0  0  0  0  0  0
    0.7261    0.5990    0.5416 C   0  0  0  0  0  0  0  0  0  0  0  0
    3.0153    1.0844    1.1301 C   0  0  0  0  0  0  0  0  0  0  0  0
    0.2981    1.6540    1.3470 C   0  0  0  0  0  0  0  0  0  0  0  0
    2.5950    2.1611    1.9193 C   0  0  0  0  0  0  0  0  0  0  0  0
    1.2251    2.4215    2.0616 C   0  0  0  0  0  0  0  0  0  0  0  0
   -1.1346    1.9101    1.4428 C   0  0  0  0  0  0  0  0  0  0  0  0
    2.5420    4.5921    3.8663 C   0  0  0  0  0  0  0  0  0  0  0  0
    3.3427    4.2762    2.6124 C   0  0  0  0  0  0  0  0  0  0  0  0
    1.3885    3.6225    4.0726 C   0  0  0  0  0  0  0  0  0  0  0  0
   -1.6490    3.0138    1.6365 O   0  0  0  0  0  0  0  0  0  0  0  0
    3.6061    2.8770    2.5092 O   0  0  0  0  0  0  0  0  0  0  0  0
    0.6795    3.4000    2.8537 O   0  0  0  0  0  0  0  0  0  0  0  0
   -1.8727    0.7782    1.2918 O   0  0  0  0  0  0  0  0  0  0  0  0
    2.4190   -0.5182   -0.1792 H   0  0  0  0  0  0  0  0  0  0  0  0
    0.0098   -0.0076   -0.0068 H   0  0  0  0  0  0  0  0  0  0  0  0
    4.0740    0.8581    1.0293 H   0  0  0  0  0  0  0  0  0  0  0  0
    3.1901    4.5534    4.7495 H   0  0  0  0  0  0  0  0  0  0  0  0
    2.1651    5.6184    3.7881 H   0  0  0  0  0  0  0  0  0  0  0  0
    2.8474    4.6532    1.7071 H   0  0  0  0  0  0  0  0  0  0  0  0
    4.3096    4.7892    2.6648 H   0  0  0  0  0  0  0  0  0  0  0  0
    1.7269    2.6742    4.5120 H   0  0  0  0  0  0  0  0  0  0  0  0
    0.6808    4.0535    4.7898 H   0  0  0  0  0  0  0  0  0  0  0  0
   -2.8382    0.9401    1.3537 H   0  0  0  0  0  0  0  0  0  0  0  0
  1  2  1  0  0  0  0
  1  3  2  0  0  0  0
  2  4  2  0  0  0  0
  3  5  1  0  0  0  0
  4  6  1  0  0  0  0
  4  7  1  0  0  0  0
  5  6  2  0  0  0  0
  5 12  1  0  0  0  0
  6 13  1  0  0  0  0
  7 11  2  0  0  0  0
  7 14  1  0  0  0  0
  8  9  1  0  0  0  0
  8 10  1  0  0  0  0
  9 12  1  0  0  0  0
 10 13  1  0  0  0  0
  1 15  1  0  0  0  0
  2 16  1  0  0  0  0
  3 17  1  0  0  0  0
  8 18  1  0  0  0  0
  8 19  1  0  0  0  0
  9 20  1  0  0  0  0
  9 21  1  0  0  0  0
 10 22  1  0  0  0  0
 10 23  1  0  0  0  0
 14 24  1  0  0  0  0
M  END
$$$$
frag.vs.077
  -OEChem-01121112253D

 22 23  0     0  0  0  0  0  0999 V2000
    0.2979   -1.1769    1.7792 C   0  0  0  0  0  0  0  0  0  0  0  0
    0.1764   -0.9939    0.4014 C   0  0  0  0  0  0  0  0  0  0  0  0
    0.5196   -2.4525    2.2989 C   0  0  0  0  0  0  0  0  0  0  0  0
    0.2866   -2.0843   -0.4619 C   0  0  0  0  0  0  0  0  0  0  0  0
    0.6167   -3.5455    1.4372 C   0  0  0  0  0  0  0  0  0  0  0  0
    0.5219   -3.3582    0.0560 C   0  0  0  0  0  0  0  0  0  0  0  0
    0.1671   -1.8596   -1.8968 C   0  0  0  0  0  0  0  0  0  0  0  0
    0.5543   -5.8390    1.0877 C   0  0  0  0  0  0  0  0  0  0  0  0
    1.2151   -5.5522   -0.2464 C   0  0  0  0  0  0  0  0  0  0  0  0
   -1.1022   -1.9409   -2.4586 N   0  0  0  0  0  0  0  0  0  0  0  0
    1.1642   -1.6207   -2.5978 O   0  0  0  0  0  0  0  0  0  0  0  0
    0.8145   -4.7756    2.0082 O   0  0  0  0  0  0  0  0  0  0  0  0
    0.6415   -4.3858   -0.8429 O   0  0  0  0  0  0  0  0  0  0  0  0
    0.2162   -0.3253    2.4485 H   0  0  0  0  0  0  0  0  0  0  0  0
    0.0002    0.0058    0.0127 H   0  0  0  0  0  0  0  0  0  0  0  0
    0.6046   -2.5872    3.3737 H   0  0  0  0  0  0  0  0  0  0  0  0
   -0.5317   -5.9548    0.9843 H   0  0  0  0  0  0  0  0  0  0  0  0
    0.9564   -6.7601    1.5210 H   0  0  0  0  0  0  0  0  0  0  0  0
    2.2953   -5.3945   -0.1369 H   0  0  0  0  0  0  0  0  0  0  0  0
    1.0600   -6.3886   -0.9350 H   0  0  0  0  0  0  0  0  0  0  0  0
   -1.8963   -2.1509   -1.8635 H   0  0  0  0  0  0  0  0  0  0  0  0
   -1.2504   -1.7945   -3.4519 H   0  0  0  0  0  0  0  0  0  0  0  0
  1  2  1  0  0  0  0
  1  3  2  0  0  0  0
  2  4  2  0  0  0  0
  3  5  1  0  0  0  0
  4  6  1  0  0  0  0
  4  7  1  0  0  0  0
  5  6  2  0  0  0  0
  5 12  1  0  0  0  0
  6 13  1  0  0  0  0
  7 10  1  0  0  0  0
  7 11  2  0  0  0  0
  8  9  1  0  0  0  0
  8 12  1  0  0  0  0
  9 13  1  0  0  0  0
  1 14  1  0  0  0  0
  2 15  1  0  0  0  0
  3 16  1  0  0  0  0
  8 17  1  0  0  0  0
  8 18  1  0  0  0  0
  9 19  1  0  0  0  0
  9 20  1  0  0  0  0
 10 21  1  0  0  0  0
 10 22  1  0  0  0  0
M  END
$$$$
frag.vs.078
  -OEChem-01121112253D

 21 22  0     0  0  0  0  0  0999 V2000
    0.2979   -1.1769    1.7792 C   0  0  0  0  0  0  0  0  0  0  0  0
    0.1764   -0.9939    0.4014 C   0  0  0  0  0  0  0  0  0  0  0  0
    0.5196   -2.4525    2.2989 C   0  0  0  0  0  0  0  0  0  0  0  0
    0.2866   -2.0843   -0.4619 C   0  0  0  0  0  0  0  0  0  0  0  0
    0.6167   -3.5455    1.4372 C   0  0  0  0  0  0  0  0  0  0  0  0
    0.5219   -3.3582    0.0560 C   0  0  0  0  0  0  0  0  0  0  0  0
    0.1671   -1.8596   -1.8968 C   0  0  0  0  0  0  0  0  0  0  0  0
    0.5543   -5.8390    1.0877 C   0  0  0  0  0  0  0  0  0  0  0  0
    1.2151   -5.5522   -0.2464 C   0  0  0  0  0  0  0  0  0  0  0  0
    0.7237   -2.5277   -2.7720 O   0  0  0  0  0  0  0  0  0  0  0  0
    0.8145   -4.7756    2.0082 O   0  0  0  0  0  0  0  0  0  0  0  0
    0.6415   -4.3858   -0.8429 O   0  0  0  0  0  0  0  0  0  0  0  0
   -0.6447   -0.8085   -2.1903 O   0  0  0  0  0  0  0  0  0  0  0  0
    0.2162   -0.3253    2.4485 H   0  0  0  0  0  0  0  0  0  0  0  0
    0.0002    0.0058    0.0127 H   0  0  0  0  0  0  0  0  0  0  0  0
    0.6046   -2.5872    3.3737 H   0  0  0  0  0  0  0  0  0  0  0  0
   -0.5317   -5.9548    0.9843 H   0  0  0  0  0  0  0  0  0  0  0  0
    0.9564   -6.7601    1.5210 H   0  0  0  0  0  0  0  0  0  0  0  0
    2.2953   -5.3945   -0.1369 H   0  0  0  0  0  0  0  0  0  0  0  0
    1.0600   -6.3886   -0.9350 H   0  0  0  0  0  0  0  0  0  0  0  0
   -0.7324   -0.6495   -3.1543 H   0  0  0  0  0  0  0  0  0  0  0  0
  1  2  1  0  0  0  0
  1  3  2  0  0  0  0
  2  4  2  0  0  0  0
  3  5  1  0  0  0  0
  4  6  1  0  0  0  0
  4  7  1  0  0  0  0
  5  6  2  0  0  0  0
  5 11  1  0  0  0  0
  6 12  1  0  0  0  0
  7 10  2  0  0  0  0
  7 13  1  0  0  0  0
  8  9  1  0  0  0  0
  8 11  1  0  0  0  0
  9 12  1  0  0  0  0
  1 14  1  0  0  0  0
  2 15  1  0  0  0  0
  3 16  1  0  0  0  0
  8 17  1  0  0  0  0
  8 18  1  0  0  0  0
  9 19  1  0  0  0  0
  9 20  1  0  0  0  0
 13 21  1  0  0  0  0
M  END
$$$$
frag.vs.079
  -OEChem-01121112253D

 21 22  0     0  0  0  0  0  0999 V2000
   -1.9136   -0.2346    3.7142 C   0  0  0  0  0  0  0  0  0  0  0  0
    0.3506   -0.9635    0.7799 C   0  0  0  0  0  0  0  0  0  0  0  0
   -0.5536   -1.1782    1.7989 C   0  0  0  0  0  0  0  0  0  0  0  0
   -1.0203   -0.0962    2.6852 C   0  0  0  0  0  0  0  0  0  0  0  0
   -2.0213    1.0643    4.2403 C   0  0  0  0  0  0  0  0  0  0  0  0
   -0.4299   -3.2286    1.0304 C   0  0  0  0  0  0  0  0  0  0  0  0
   -0.6657   -4.6804    0.8736 C   0  0  0  0  0  0  0  0  0  0  0  0
   -2.8503    1.5125    5.3705 C   0  0  0  0  0  0  0  0  0  0  0  0
   -1.0026   -2.4764    1.9438 N   0  0  0  0  0  0  0  0  0  0  0  0
   -1.2535    1.9413    3.5875 N   0  0  0  0  0  0  0  0  0  0  0  0
   -0.6191    1.1980    2.5995 O   0  0  0  0  0  0  0  0  0  0  0  0
   -2.0339    1.7348    6.5221 O   0  0  0  0  0  0  0  0  0  0  0  0
    0.6599   -2.4403   -0.0354 S   0  0  0  0  0  0  0  0  0  0  0  0
   -2.4139   -1.1358    4.0389 H   0  0  0  0  0  0  0  0  0  0  0  0
    0.8335   -0.0440    0.4789 H   0  0  0  0  0  0  0  0  0  0  0  0
   -1.5034   -4.8715    0.1848 H   0  0  0  0  0  0  0  0  0  0  0  0
    0.2221   -5.2003    0.4781 H   0  0  0  0  0  0  0  0  0  0  0  0
   -0.9021   -5.1642    1.8354 H   0  0  0  0  0  0  0  0  0  0  0  0
   -3.3870    2.4544    5.1512 H   0  0  0  0  0  0  0  0  0  0  0  0
   -3.6229    0.7689    5.6412 H   0  0  0  0  0  0  0  0  0  0  0  0
   -2.6310    2.0257    7.2272 H   0  0  0  0  0  0  0  0  0  0  0  0
  1  4  2  0  0  0  0
  1  5  1  0  0  0  0
  2  3  2  0  0  0  0
  2 13  1  0  0  0  0
  3  4  1  0  0  0  0
  3  9  1  0  0  0  0
  4 11  1  0  0  0  0
  5  8  1  0  0  0  0
  5 10  2  0  0  0  0
  6  7  1  0  0  0  0
  6  9  2  0  0  0  0
  6 13  1  0  0  0  0
  8 12  1  0  0  0  0
 10 11  1  0  0  0  0
  1 14  1  0  0  0  0
  2 15  1  0  0  0  0
  7 16  1  0  0  0  0
  7 17  1  0  0  0  0
  7 18  1  0  0  0  0
  8 19  1  0  0  0  0
  8 20  1  0  0  0  0
 12 21  1  0  0  0  0
M  END
$$$$
frag.vs.080
  -OEChem-01121112253D

 22 23  0     0  0  0  0  0  0999 V2000
    1.6205    1.1850    0.9644 C   0  0  0  0  0  0  0  0  0  0  0  0
   -1.9395   -1.9791   -0.3354 C   0  0  0  0  0  0  0  0  0  0  0  0
    0.7635    0.7611   -0.0659 C   0  0  0  0  0  0  0  0  0  0  0  0
   -1.3732   -1.9677    0.9220 C   0  0  0  0  0  0  0  0  0  0  0  0
    2.3336    2.2066    0.3952 C   0  0  0  0  0  0  0  0  0  0  0  0
   -0.2233   -0.3283    0.0276 C   0  0  0  0  0  0  0  0  0  0  0  0
   -1.7516   -2.8657    1.9767 C   0  0  0  0  0  0  0  0  0  0  0  0
    3.3942    3.0989    0.8802 C   0  0  0  0  0  0  0  0  0  0  0  0
   -1.0465   -2.7402    3.3057 C   0  0  0  0  0  0  0  0  0  0  0  0
    0.9322    1.4659   -1.1883 N   0  0  0  0  0  0  0  0  0  0  0  0
   -0.3886   -1.0220    1.1319 N   0  0  0  0  0  0  0  0  0  0  0  0
   -2.6168   -3.7551    1.8959 O   0  0  0  0  0  0  0  0  0  0  0  0
    1.9319    2.3838   -0.8894 O   0  0  0  0  0  0  0  0  0  0  0  0
   -1.2190   -0.7593   -1.3020 S   0  0  0  0  0  0  0  0  0  0  0  0
    1.7114    0.8078    1.9726 H   0  0  0  0  0  0  0  0  0  0  0  0
   -2.7170   -2.6217   -0.7239 H   0  0  0  0  0  0  0  0  0  0  0  0
    4.3972    2.6725    0.6972 H   0  0  0  0  0  0  0  0  0  0  0  0
    3.3652    4.0917    0.3930 H   0  0  0  0  0  0  0  0  0  0  0  0
    3.3144    3.2972    1.9658 H   0  0  0  0  0  0  0  0  0  0  0  0
   -1.5412   -2.0451    4.0025 H   0  0  0  0  0  0  0  0  0  0  0  0
    0.0019   -2.4184    3.2070 H   0  0  0  0  0  0  0  0  0  0  0  0
   -0.9922   -3.6862    3.8733 H   0  0  0  0  0  0  0  0  0  0  0  0
  1  3  1  0  0  0  0
  1  5  2  0  0  0  0
  2  4  2  0  0  0  0
  2 14  1  0  0  0  0
  3  6  1  0  0  0  0
  3 10  2  0  0  0  0
  4  7  1  0  0  0  0
  4 11  1  0  0  0  0
  5  8  1  0  0  0  0
  5 13  1  0  0  0  0
  6 11  2  0  0  0  0
  6 14  1  0  0  0  0
  7  9  1  0  0  0  0
  7 12  2  0  0  0  0
 10 13  1  0  0  0  0
  1 15  1  0  0  0  0
  2 16  1  0  0  0  0
  8 17  1  0  0  0  0
  8 18  1  0  0  0  0
  8 19  1  0  0  0  0
  9 20  1  0  0  0  0
  9 21  1  0  0  0  0
  9 22  1  0  0  0  0
M  END
$$$$
frag.vs.081
  -OEChem-01121112253D

 28 29  0     0  0  0  0  0  0999 V2000
    0.1049   -1.6002   -2.2807 C   0  0  0  0  0  0  0  0  0  0  0  0
    1.9250   -3.0691   -1.6754 C   0  0  0  0  0  0  0  0  0  0  0  0
    0.4608   -1.7128   -3.6246 C   0  0  0  0  0  0  0  0  0  0  0  0
    2.2809   -3.1819   -3.0194 C   0  0  0  0  0  0  0  0  0  0  0  0
    0.8370   -2.2783   -1.3061 C   0  0  0  0  0  0  0  0  0  0  0  0
    1.5488   -2.5037   -3.9940 C   0  0  0  0  0  0  0  0  0  0  0  0
    0.5048   -0.6956    0.6793 C   0  0  0  0  0  0  0  0  0  0  0  0
    1.2476   -3.0223    1.1695 C   0  0  0  0  0  0  0  0  0  0  0  0
    1.9383   -0.2262    0.9240 C   0  0  0  0  0  0  0  0  0  0  0  0
    2.6506   -2.4762    1.4515 C   0  0  0  0  0  0  0  0  0  0  0  0
    0.4460   -2.1563    0.1681 C   0  0  0  0  0  0  0  0  0  0  0  0
    2.6092   -1.0848    1.8987 N   0  0  0  0  0  0  0  0  0  0  0  0
   -0.9195   -2.5988    0.2282 O   0  0  0  0  0  0  0  0  0  0  0  0
    1.9875   -2.6427   -5.6520 Cl  0  0  0  0  0  0  0  0  0  0  0  0
   -0.7440   -0.9818   -2.0008 H   0  0  0  0  0  0  0  0  0  0  0  0
    2.5005   -3.6009   -0.9223 H   0  0  0  0  0  0  0  0  0  0  0  0
   -0.1192   -1.1789   -4.3730 H   0  0  0  0  0  0  0  0  0  0  0  0
    3.1311   -3.8016   -3.2924 H   0  0  0  0  0  0  0  0  0  0  0  0
   -0.0783   -0.6060    1.6064 H   0  0  0  0  0  0  0  0  0  0  0  0
    0.0156   -0.0266   -0.0407 H   0  0  0  0  0  0  0  0  0  0  0  0
    1.3216   -4.0539    0.8012 H   0  0  0  0  0  0  0  0  0  0  0  0
    0.6910   -3.0895    2.1147 H   0  0  0  0  0  0  0  0  0  0  0  0
    2.5075   -0.1910   -0.0124 H   0  0  0  0  0  0  0  0  0  0  0  0
    1.9138    0.7959    1.3177 H   0  0  0  0  0  0  0  0  0  0  0  0
    3.1186   -3.0841    2.2336 H   0  0  0  0  0  0  0  0  0  0  0  0
    3.2829   -2.5660    0.5600 H   0  0  0  0  0  0  0  0  0  0  0  0
    3.5607   -0.7497    2.0464 H   0  0  0  0  0  0  0  0  0  0  0  0
   -1.1937   -2.5313    1.1567 H   0  0  0  0  0  0  0  0  0  0  0  0
  1  3  1  0  0  0  0
  1  5  2  0  0  0  0
  2  4  2  0  0  0  0
  2  5  1  0  0  0  0
  3  6  2  0  0  0  0
  4  6  1  0  0  0  0
  5 11  1  0  0  0  0
  6 14  1  0  0  0  0
  7  9  1  0  0  0  0
  7 11  1  0  0  0  0
  8 10  1  0  0  0  0
  8 11  1  0  0  0  0
  9 12  1  0  0  0  0
 10 12  1  0  0  0  0
 11 13  1  0  0  0  0
  1 15  1  0  0  0  0
  2 16  1  0  0  0  0
  3 17  1  0  0  0  0
  4 18  1  0  0  0  0
  7 19  1  0  0  0  0
  7 20  1  0  0  0  0
  8 21  1  0  0  0  0
  8 22  1  0  0  0  0
  9 23  1  0  0  0  0
  9 24  1  0  0  0  0
 10 25  1  0  0  0  0
 10 26  1  0  0  0  0
 12 27  1  0  0  0  0
 13 28  1  0  0  0  0
M  END
$$$$
frag.vs.082
  -OEChem-01121112253D

 19 20  0     0  0  0  0  0  0999 V2000
    1.8851   -1.0363   -0.1124 C   0  0  0  0  0  0  0  0  0  0  0  0
    0.8066   -0.4630    0.5610 C   0  0  0  0  0  0  0  0  0  0  0  0
    2.9210   -1.6309    0.6081 C   0  0  0  0  0  0  0  0  0  0  0  0
    0.7638   -0.4841    1.9551 C   0  0  0  0  0  0  0  0  0  0  0  0
    2.8783   -1.6520    2.0022 C   0  0  0  0  0  0  0  0  0  0  0  0
    1.7997   -1.0786    2.6757 C   0  0  0  0  0  0  0  0  0  0  0  0
    1.7561   -1.1004    4.1109 C   0  0  0  0  0  0  0  0  0  0  0  0
    2.3204   -1.8464    6.0757 C   0  0  0  0  0  0  0  0  0  0  0  0
    2.5324   -2.0240    4.7902 N   0  0  0  0  0  0  0  0  0  0  0  0
    0.9801   -0.2425    4.7731 N   0  0  0  0  0  0  0  0  0  0  0  0
    2.8900   -2.5510    7.0852 N   0  0  0  0  0  0  0  0  0  0  0  0
    1.2045   -0.5827    6.3962 S   0  0  0  0  0  0  0  0  0  0  0  0
    1.9181   -1.0209   -1.1979 H   0  0  0  0  0  0  0  0  0  0  0  0
   -0.0007   -0.0012    0.0001 H   0  0  0  0  0  0  0  0  0  0  0  0
    3.7600   -2.0783    0.0835 H   0  0  0  0  0  0  0  0  0  0  0  0
   -0.0838   -0.0329    2.4656 H   0  0  0  0  0  0  0  0  0  0  0  0
    3.6937   -2.1194    2.5494 H   0  0  0  0  0  0  0  0  0  0  0  0
    3.5229   -3.3400    6.9053 H   0  0  0  0  0  0  0  0  0  0  0  0
    2.6403   -2.3873    8.0682 H   0  0  0  0  0  0  0  0  0  0  0  0
  1  2  1  0  0  0  0
  1  3  2  0  0  0  0
  2  4  2  0  0  0  0
  3  5  1  0  0  0  0
  4  6  1  0  0  0  0
  5  6  2  0  0  0  0
  6  7  1  0  0  0  0
  7  9  1  0  0  0  0
  7 10  2  0  0  0  0
  8  9  2  0  0  0  0
  8 11  1  0  0  0  0
  8 12  1  0  0  0  0
 10 12  1  0  0  0  0
  1 13  1  0  0  0  0
  2 14  1  0  0  0  0
  3 15  1  0  0  0  0
  4 16  1  0  0  0  0
  5 17  1  0  0  0  0
 11 18  1  0  0  0  0
 11 19  1  0  0  0  0
M  END
$$$$
frag.vs.083
  -OEChem-01121112253D

 24 25  0     0  0  0  0  0  0999 V2000
    5.5364   -2.3279   -1.9703 C   0  0  0  0  0  0  0  0  0  0  0  0
    4.4576   -1.7360   -1.3229 C   0  0  0  0  0  0  0  0  0  0  0  0
    1.8851   -1.0363   -0.1124 C   0  0  0  0  0  0  0  0  0  0  0  0
    2.8783   -1.6520    2.0022 C   0  0  0  0  0  0  0  0  0  0  0  0
    0.8066   -0.4630    0.5610 C   0  0  0  0  0  0  0  0  0  0  0  0
    1.7997   -1.0786    2.6757 C   0  0  0  0  0  0  0  0  0  0  0  0
    6.1584   -3.3983   -1.3480 C   0  0  0  0  0  0  0  0  0  0  0  0
    4.7286   -3.3006    0.4476 C   0  0  0  0  0  0  0  0  0  0  0  0
    2.9210   -1.6309    0.6081 C   0  0  0  0  0  0  0  0  0  0  0  0
    4.0397   -2.2256   -0.0904 C   0  0  0  0  0  0  0  0  0  0  0  0
    0.7638   -0.4841    1.9551 C   0  0  0  0  0  0  0  0  0  0  0  0
   -0.3607    0.1136    2.6572 C   0  0  0  0  0  0  0  0  0  0  0  0
    5.7810   -3.9017   -0.1514 N   0  0  0  0  0  0  0  0  0  0  0  0
   -1.3283    0.6645    2.1218 O   0  0  0  0  0  0  0  0  0  0  0  0
   -0.2468    0.0059    4.0095 O   0  0  0  0  0  0  0  0  0  0  0  0
    5.8795   -1.9641   -2.9319 H   0  0  0  0  0  0  0  0  0  0  0  0
    3.9525   -0.8943   -1.7903 H   0  0  0  0  0  0  0  0  0  0  0  0
    1.9041   -1.0119   -1.1994 H   0  0  0  0  0  0  0  0  0  0  0  0
    3.6781   -2.1116    2.5780 H   0  0  0  0  0  0  0  0  0  0  0  0
    0.0047   -0.0024   -0.0104 H   0  0  0  0  0  0  0  0  0  0  0  0
    1.7765   -1.1007    3.7622 H   0  0  0  0  0  0  0  0  0  0  0  0
    7.0049   -3.8946   -1.8117 H   0  0  0  0  0  0  0  0  0  0  0  0
    4.4516   -3.7305    1.4060 H   0  0  0  0  0  0  0  0  0  0  0  0
   -1.0013    0.4056    4.4925 H   0  0  0  0  0  0  0  0  0  0  0  0
  1  2  1  0  0  0  0
  1  7  2  0  0  0  0
  2 10  2  0  0  0  0
  3  5  2  0  0  0  0
  3  9  1  0  0  0  0
  4  6  1  0  0  0  0
  4  9  2  0  0  0  0
  5 11  1  0  0  0  0
  6 11  2  0  0  0  0
  7 13  1  0  0  0  0
  8 10  1  0  0  0  0
  8 13  2  0  0  0  0
  9 10  1  0  0  0  0
 11 12  1  0  0  0  0
 12 14  2  0  0  0  0
 12 15  1  0  0  0  0
  1 16  1  0  0  0  0
  2 17  1  0  0  0  0
  3 18  1  0  0  0  0
  4 19  1  0  0  0  0
  5 20  1  0  0  0  0
  6 21  1  0  0  0  0
  7 22  1  0  0  0  0
  8 23  1  0  0  0  0
 15 24  1  0  0  0  0
M  END
$$$$
frag.vs.084
  -OEChem-01121112253D

 25 26  0     0  0  0  0  0  0999 V2000
    5.5362   -2.3282   -1.9704 C   0  0  0  0  0  0  0  0  0  0  0  0
    4.4575   -1.7362   -1.3230 C   0  0  0  0  0  0  0  0  0  0  0  0
    1.8851   -1.0363   -0.1124 C   0  0  0  0  0  0  0  0  0  0  0  0
    2.8783   -1.6520    2.0022 C   0  0  0  0  0  0  0  0  0  0  0  0
    0.8066   -0.4630    0.5610 C   0  0  0  0  0  0  0  0  0  0  0  0
    1.7997   -1.0786    2.6757 C   0  0  0  0  0  0  0  0  0  0  0  0
    6.1582   -3.3986   -1.3481 C   0  0  0  0  0  0  0  0  0  0  0  0
    4.7285   -3.3007    0.4476 C   0  0  0  0  0  0  0  0  0  0  0  0
    2.9210   -1.6309    0.6081 C   0  0  0  0  0  0  0  0  0  0  0  0
    4.0396   -2.2257   -0.0904 C   0  0  0  0  0  0  0  0  0  0  0  0
    0.7638   -0.4841    1.9551 C   0  0  0  0  0  0  0  0  0  0  0  0
   -0.3895    0.1286    2.6751 C   0  0  0  0  0  0  0  0  0  0  0  0
    5.7808   -3.9019   -0.1515 N   0  0  0  0  0  0  0  0  0  0  0  0
   -1.2388   -0.9001    3.1686 O   0  0  0  0  0  0  0  0  0  0  0  0
    5.8793   -1.9645   -2.9321 H   0  0  0  0  0  0  0  0  0  0  0  0
    3.9524   -0.8946   -1.7905 H   0  0  0  0  0  0  0  0  0  0  0  0
    1.9036   -1.0124   -1.1995 H   0  0  0  0  0  0  0  0  0  0  0  0
    3.6784   -2.1111    2.5780 H   0  0  0  0  0  0  0  0  0  0  0  0
    0.0034   -0.0030   -0.0085 H   0  0  0  0  0  0  0  0  0  0  0  0
    1.7748   -1.0991    3.7621 H   0  0  0  0  0  0  0  0  0  0  0  0
    7.0046   -3.8950   -1.8118 H   0  0  0  0  0  0  0  0  0  0  0  0
    4.4516   -3.7305    1.4061 H   0  0  0  0  0  0  0  0  0  0  0  0
   -0.0531    0.7423    3.5221 H   0  0  0  0  0  0  0  0  0  0  0  0
   -0.9730    0.7789    2.0091 H   0  0  0  0  0  0  0  0  0  0  0  0
   -1.9721   -0.4602    3.6277 H   0  0  0  0  0  0  0  0  0  0  0  0
  1  2  1  0  0  0  0
  1  7  2  0  0  0  0
  2 10  2  0  0  0  0
  3  5  2  0  0  0  0
  3  9  1  0  0  0  0
  4  6  1  0  0  0  0
  4  9  2  0  0  0  0
  5 11  1  0  0  0  0
  6 11  2  0  0  0  0
  7 13  1  0  0  0  0
  8 10  1  0  0  0  0
  8 13  2  0  0  0  0
  9 10  1  0  0  0  0
 11 12  1  0  0  0  0
 12 14  1  0  0  0  0
  1 15  1  0  0  0  0
  2 16  1  0  0  0  0
  3 17  1  0  0  0  0
  4 18  1  0  0  0  0
  5 19  1  0  0  0  0
  6 20  1  0  0  0  0
  7 21  1  0  0  0  0
  8 22  1  0  0  0  0
 12 23  1  0  0  0  0
 12 24  1  0  0  0  0
 14 25  1  0  0  0  0
M  END
$$$$
frag.vs.085
  -OEChem-01121112253D

 25 26  0     0  0  0  0  0  0999 V2000
    1.8851   -1.0363   -0.1124 C   0  0  0  0  0  0  0  0  0  0  0  0
    2.8783   -1.6520    2.0022 C   0  0  0  0  0  0  0  0  0  0  0  0
    0.8066   -0.4630    0.5610 C   0  0  0  0  0  0  0  0  0  0  0  0
    1.7997   -1.0786    2.6757 C   0  0  0  0  0  0  0  0  0  0  0  0
    3.8611   -2.7736   -1.3558 C   0  0  0  0  0  0  0  0  0  0  0  0
    5.2980   -2.2503    0.5005 C   0  0  0  0  0  0  0  0  0  0  0  0
    4.9642   -3.3297   -1.9832 C   0  0  0  0  0  0  0  0  0  0  0  0
    6.3367   -2.8301   -0.2099 C   0  0  0  0  0  0  0  0  0  0  0  0
    2.9210   -1.6309    0.6081 C   0  0  0  0  0  0  0  0  0  0  0  0
    4.0396   -2.2257   -0.0904 C   0  0  0  0  0  0  0  0  0  0  0  0
    0.7638   -0.4841    1.9551 C   0  0  0  0  0  0  0  0  0  0  0  0
   -0.3895    0.1286    2.6751 C   0  0  0  0  0  0  0  0  0  0  0  0
    6.2018   -3.3723   -1.4410 N   0  0  0  0  0  0  0  0  0  0  0  0
   -1.2388   -0.9001    3.1686 O   0  0  0  0  0  0  0  0  0  0  0  0
    1.9036   -1.0124   -1.1995 H   0  0  0  0  0  0  0  0  0  0  0  0
    3.6784   -2.1111    2.5780 H   0  0  0  0  0  0  0  0  0  0  0  0
    0.0034   -0.0030   -0.0085 H   0  0  0  0  0  0  0  0  0  0  0  0
    1.7748   -1.0991    3.7621 H   0  0  0  0  0  0  0  0  0  0  0  0
    2.8948   -2.7721   -1.8499 H   0  0  0  0  0  0  0  0  0  0  0  0
    5.4750   -1.8330    1.4866 H   0  0  0  0  0  0  0  0  0  0  0  0
    4.8780   -3.7685   -2.9720 H   0  0  0  0  0  0  0  0  0  0  0  0
    7.3371   -2.8754    0.2074 H   0  0  0  0  0  0  0  0  0  0  0  0
   -0.0531    0.7423    3.5221 H   0  0  0  0  0  0  0  0  0  0  0  0
   -0.9730    0.7789    2.0091 H   0  0  0  0  0  0  0  0  0  0  0  0
   -1.9721   -0.4602    3.6277 H   0  0  0  0  0  0  0  0  0  0  0  0
  1  3  1  0  0  0  0
  1  9  2  0  0  0  0
  2  4  2  0  0  0  0
  2  9  1  0  0  0  0
  3 11  2  0  0  0  0
  4 11  1  0  0  0  0
  5  7  2  0  0  0  0
  5 10  1  0  0  0  0
  6  8  1  0  0  0  0
  6 10  2  0  0  0  0
  7 13  1  0  0  0  0
  8 13  2  0  0  0  0
  9 10  1  0  0  0  0
 11 12  1  0  0  0  0
 12 14  1  0  0  0  0
  1 15  1  0  0  0  0
  2 16  1  0  0  0  0
  3 17  1  0  0  0  0
  4 18  1  0  0  0  0
  5 19  1  0  0  0  0
  6 20  1  0  0  0  0
  7 21  1  0  0  0  0
  8 22  1  0  0  0  0
 12 23  1  0  0  0  0
 12 24  1  0  0  0  0
 14 25  1  0  0  0  0
M  END
$$$$
frag.vs.086
  -OEChem-01121112253D

 22 23  0     0  0  0  0  0  0999 V2000
   -0.7036    1.3640    1.5041 C   0  0  0  0  0  0  0  0  0  0  0  0
   -1.6773    1.6439    2.4698 C   0  0  0  0  0  0  0  0  0  0  0  0
   -0.7671    0.1975    0.7446 C   0  0  0  0  0  0  0  0  0  0  0  0
   -3.8586    0.6897    3.5356 C   0  0  0  0  0  0  0  0  0  0  0  0
   -4.5471   -0.4724    3.2738 C   0  0  0  0  0  0  0  0  0  0  0  0
   -2.7304    0.7292    2.6692 C   0  0  0  0  0  0  0  0  0  0  0  0
   -1.8022   -0.7245    0.9247 C   0  0  0  0  0  0  0  0  0  0  0  0
   -2.7685   -0.4315    1.8936 C   0  0  0  0  0  0  0  0  0  0  0  0
   -1.8595   -1.9374    0.1287 C   0  0  0  0  0  0  0  0  0  0  0  0
   -0.7613   -3.1677   -1.5981 C   0  0  0  0  0  0  0  0  0  0  0  0
   -3.8818   -1.1421    2.2822 N   0  0  0  0  0  0  0  0  0  0  0  0
   -2.7422   -2.8020    0.2280 O   0  0  0  0  0  0  0  0  0  0  0  0
   -0.8148   -2.0133   -0.7530 O   0  0  0  0  0  0  0  0  0  0  0  0
    0.1116    2.0655    1.3469 H   0  0  0  0  0  0  0  0  0  0  0  0
   -1.6170    2.5573    3.0547 H   0  0  0  0  0  0  0  0  0  0  0  0
    0.0068    0.0097    0.0034 H   0  0  0  0  0  0  0  0  0  0  0  0
   -4.1390    1.4312    4.2711 H   0  0  0  0  0  0  0  0  0  0  0  0
   -5.4501   -0.8818    3.7042 H   0  0  0  0  0  0  0  0  0  0  0  0
    0.1144   -3.1037   -2.2485 H   0  0  0  0  0  0  0  0  0  0  0  0
   -1.6721   -3.2224   -2.1998 H   0  0  0  0  0  0  0  0  0  0  0  0
   -0.6847   -4.0615   -0.9745 H   0  0  0  0  0  0  0  0  0  0  0  0
   -4.1678   -2.0295    1.8923 H   0  0  0  0  0  0  0  0  0  0  0  0
  1  2  1  0  0  0  0
  1  3  2  0  0  0  0
  2  6  2  0  0  0  0
  3  7  1  0  0  0  0
  4  5  2  0  0  0  0
  4  6  1  0  0  0  0
  5 11  1  0  0  0  0
  6  8  1  0  0  0  0
  7  8  2  0  0  0  0
  7  9  1  0  0  0  0
  8 11  1  0  0  0  0
  9 12  2  0  0  0  0
  9 13  1  0  0  0  0
 10 13  1  0  0  0  0
  1 14  1  0  0  0  0
  2 15  1  0  0  0  0
  3 16  1  0  0  0  0
  4 17  1  0  0  0  0
  5 18  1  0  0  0  0
 10 19  1  0  0  0  0
 10 20  1  0  0  0  0
 10 21  1  0  0  0  0
 11 22  1  0  0  0  0
M  END
$$$$
frag.vs.087
  -OEChem-01121112253D

 25 26  0     0  0  0  0  0  0999 V2000
    1.8851   -1.0363   -0.1124 C   0  0  0  0  0  0  0  0  0  0  0  0
    0.8066   -0.4630    0.5610 C   0  0  0  0  0  0  0  0  0  0  0  0
    2.9210   -1.6309    0.6081 C   0  0  0  0  0  0  0  0  0  0  0  0
    1.7997   -1.0786    2.6757 C   0  0  0  0  0  0  0  0  0  0  0  0
   -0.2249    0.6641    3.9032 C   0  0  0  0  0  0  0  0  0  0  0  0
    0.7638   -0.4841    1.9551 C   0  0  0  0  0  0  0  0  0  0  0  0
    2.8783   -1.6520    2.0022 C   0  0  0  0  0  0  0  0  0  0  0  0
   -0.3466    0.1068    2.6475 C   0  0  0  0  0  0  0  0  0  0  0  0
   -2.4273    0.7396    2.9305 C   0  0  0  0  0  0  0  0  0  0  0  0
   -3.8664    0.9679    2.6785 C   0  0  0  0  0  0  0  0  0  0  0  0
    3.9855   -2.2890    2.7717 C   0  0  0  0  0  0  0  0  0  0  0  0
   -1.6088    0.1489    2.0883 N   0  0  0  0  0  0  0  0  0  0  0  0
    4.8038   -1.2778    3.3471 O   0  0  0  0  0  0  0  0  0  0  0  0
   -1.7459    1.2700    4.4135 S   0  0  0  0  0  0  0  0  0  0  0  0
    1.9181   -1.0209   -1.1981 H   0  0  0  0  0  0  0  0  0  0  0  0
    0.0076   -0.0028   -0.0153 H   0  0  0  0  0  0  0  0  0  0  0  0
    3.7572   -2.0749    0.0744 H   0  0  0  0  0  0  0  0  0  0  0  0
    1.7732   -1.0987    3.7632 H   0  0  0  0  0  0  0  0  0  0  0  0
    0.6512    0.7467    4.5315 H   0  0  0  0  0  0  0  0  0  0  0  0
   -4.4693    0.1187    3.0369 H   0  0  0  0  0  0  0  0  0  0  0  0
   -4.2326    1.8778    3.1816 H   0  0  0  0  0  0  0  0  0  0  0  0
   -4.0793    1.1038    1.6053 H   0  0  0  0  0  0  0  0  0  0  0  0
    3.5982   -2.9275    3.5775 H   0  0  0  0  0  0  0  0  0  0  0  0
    4.6082   -2.9200    2.1227 H   0  0  0  0  0  0  0  0  0  0  0  0
    5.5077   -1.7332    3.8360 H   0  0  0  0  0  0  0  0  0  0  0  0
  1  2  2  0  0  0  0
  1  3  1  0  0  0  0
  2  6  1  0  0  0  0
  3  7  2  0  0  0  0
  4  6  2  0  0  0  0
  4  7  1  0  0  0  0
  5  8  2  0  0  0  0
  5 14  1  0  0  0  0
  6  8  1  0  0  0  0
  7 11  1  0  0  0  0
  8 12  1  0  0  0  0
  9 10  1  0  0  0  0
  9 12  2  0  0  0  0
  9 14  1  0  0  0  0
 11 13  1  0  0  0  0
  1 15  1  0  0  0  0
  2 16  1  0  0  0  0
  3 17  1  0  0  0  0
  4 18  1  0  0  0  0
  5 19  1  0  0  0  0
 10 20  1  0  0  0  0
 10 21  1  0  0  0  0
 10 22  1  0  0  0  0
 11 23  1  0  0  0  0
 11 24  1  0  0  0  0
 13 25  1  0  0  0  0
M  END
$$$$
frag.vs.088
  -OEChem-01121112253D

 24 25  0     0  0  0  0  0  0999 V2000
    1.8851   -1.0363   -0.1124 C   0  0  0  0  0  0  0  0  0  0  0  0
    0.8066   -0.4630    0.5610 C   0  0  0  0  0  0  0  0  0  0  0  0
    2.9210   -1.6309    0.6081 C   0  0  0  0  0  0  0  0  0  0  0  0
    5.7514   -3.2814    3.2454 C   0  0  0  0  0  0  0  0  0  0  0  0
    1.7997   -1.0786    2.6757 C   0  0  0  0  0  0  0  0  0  0  0  0
    5.0036   -2.9053    4.3772 C   0  0  0  0  0  0  0  0  0  0  0  0
    5.0088   -2.8356    2.1795 C   0  0  0  0  0  0  0  0  0  0  0  0
    0.7638   -0.4841    1.9551 C   0  0  0  0  0  0  0  0  0  0  0  0
    2.8783   -1.6520    2.0022 C   0  0  0  0  0  0  0  0  0  0  0  0
   -0.3900    0.1290    2.6741 C   0  0  0  0  0  0  0  0  0  0  0  0
    3.8727   -2.2693    4.0600 N   0  0  0  0  0  0  0  0  0  0  0  0
    3.9045   -2.2423    2.7167 N   0  0  0  0  0  0  0  0  0  0  0  0
   -1.2989   -0.8601    3.1953 N   0  0  0  0  0  0  0  0  0  0  0  0
    1.9182   -1.0201   -1.1979 H   0  0  0  0  0  0  0  0  0  0  0  0
    0.0045   -0.0014   -0.0087 H   0  0  0  0  0  0  0  0  0  0  0  0
    3.7558   -2.0741    0.0704 H   0  0  0  0  0  0  0  0  0  0  0  0
    6.6968   -3.8021    3.2073 H   0  0  0  0  0  0  0  0  0  0  0  0
    1.7624   -1.0915    3.7632 H   0  0  0  0  0  0  0  0  0  0  0  0
    5.2351   -3.0677    5.4203 H   0  0  0  0  0  0  0  0  0  0  0  0
    5.1763   -2.8913    1.1120 H   0  0  0  0  0  0  0  0  0  0  0  0
   -0.0489    0.7420    3.5202 H   0  0  0  0  0  0  0  0  0  0  0  0
   -0.9691    0.7913    2.0159 H   0  0  0  0  0  0  0  0  0  0  0  0
   -2.2628   -0.6100    3.3394 H   0  0  0  0  0  0  0  0  0  0  0  0
   -0.9251   -1.7052    3.5936 H   0  0  0  0  0  0  0  0  0  0  0  0
  1  2  1  0  0  0  0
  1  3  2  0  0  0  0
  2  8  2  0  0  0  0
  3  9  1  0  0  0  0
  4  6  1  0  0  0  0
  4  7  2  0  0  0  0
  5  8  1  0  0  0  0
  5  9  2  0  0  0  0
  6 11  2  0  0  0  0
  7 12  1  0  0  0  0
  8 10  1  0  0  0  0
  9 12  1  0  0  0  0
 10 13  1  0  0  0  0
 11 12  1  0  0  0  0
  1 14  1  0  0  0  0
  2 15  1  0  0  0  0
  3 16  1  0  0  0  0
  4 17  1  0  0  0  0
  5 18  1  0  0  0  0
  6 19  1  0  0  0  0
  7 20  1  0  0  0  0
 10 21  1  0  0  0  0
 10 22  1  0  0  0  0
 13 23  1  0  0  0  0
 13 24  1  0  0  0  0
M  END
$$$$
frag.vs.089
  -OEChem-01121112253D

 14 14  0     0  0  0  0  0  0999 V2000
    1.8851   -1.0363   -0.1124 C   0  0  0  0  0  0  0  0  0  0  0  0
    0.8066   -0.4630    0.5610 C   0  0  0  0  0  0  0  0  0  0  0  0
    1.7997   -1.0786    2.6757 C   0  0  0  0  0  0  0  0  0  0  0  0
    2.9210   -1.6309    0.6081 C   0  0  0  0  0  0  0  0  0  0  0  0
    0.7638   -0.4841    1.9551 C   0  0  0  0  0  0  0  0  0  0  0  0
    2.8783   -1.6520    2.0022 C   0  0  0  0  0  0  0  0  0  0  0  0
    4.0105   -2.2099   -0.0752 N   0  0  0  0  0  0  0  0  0  0  0  0
   -0.2720    0.0664    2.6018 F   0  0  0  0  0  0  0  0  0  0  0  0
    3.8684   -2.2207    2.7048 F   0  0  0  0  0  0  0  0  0  0  0  0
    1.9081   -1.0141   -1.1990 H   0  0  0  0  0  0  0  0  0  0  0  0
   -0.0002   -0.0001    0.0004 H   0  0  0  0  0  0  0  0  0  0  0  0
    1.7663   -1.0950    3.7609 H   0  0  0  0  0  0  0  0  0  0  0  0
    4.0047   -2.2291   -1.0750 H   0  0  0  0  0  0  0  0  0  0  0  0
    4.7238   -2.6747    0.4493 H   0  0  0  0  0  0  0  0  0  0  0  0
  1  2  1  0  0  0  0
  1  4  2  0  0  0  0
  2  5  2  0  0  0  0
  3  5  1  0  0  0  0
  3  6  2  0  0  0  0
  4  6  1  0  0  0  0
  4  7  1  0  0  0  0
  5  8  1  0  0  0  0
  6  9  1  0  0  0  0
  1 10  1  0  0  0  0
  2 11  1  0  0  0  0
  3 12  1  0  0  0  0
  7 13  1  0  0  0  0
  7 14  1  0  0  0  0
M  END
$$$$
frag.vs.090
  -OEChem-01121112253D

 18 19  0     0  0  0  0  0  0999 V2000
   -0.0404    2.1466    1.4613 C   0  0  0  0  0  0  0  0  0  0  0  0
    0.2559    0.7651    1.3794 C   0  0  0  0  0  0  0  0  0  0  0  0
   -0.2303   -1.3824   -1.7538 C   0  0  0  0  0  0  0  0  0  0  0  0
   -0.5148    2.5097    0.2223 C   0  0  0  0  0  0  0  0  0  0  0  0
    0.0890   -0.9817   -0.4426 C   0  0  0  0  0  0  0  0  0  0  0  0
   -0.0587    0.3823    0.0962 C   0  0  0  0  0  0  0  0  0  0  0  0
    0.0707   -2.7221   -1.7863 C   0  0  0  0  0  0  0  0  0  0  0  0
    0.5568   -1.9856    0.3039 N   0  0  0  0  0  0  0  0  0  0  0  0
    0.5336   -3.0305   -0.5409 N   0  0  0  0  0  0  0  0  0  0  0  0
   -0.0118   -3.6640   -2.7450 N   0  0  0  0  0  0  0  0  0  0  0  0
   -0.5292    1.4399   -0.6156 O   0  0  0  0  0  0  0  0  0  0  0  0
    0.0768    2.7964    2.3164 H   0  0  0  0  0  0  0  0  0  0  0  0
    0.6494    0.1348    2.1648 H   0  0  0  0  0  0  0  0  0  0  0  0
   -0.6245   -0.7859   -2.5645 H   0  0  0  0  0  0  0  0  0  0  0  0
   -0.8650    3.4395   -0.2012 H   0  0  0  0  0  0  0  0  0  0  0  0
    0.8490   -3.9303   -0.2007 H   0  0  0  0  0  0  0  0  0  0  0  0
   -0.4027   -3.4666   -3.6802 H   0  0  0  0  0  0  0  0  0  0  0  0
    0.2228   -4.6538   -2.5674 H   0  0  0  0  0  0  0  0  0  0  0  0
  1  2  1  0  0  0  0
  1  4  2  0  0  0  0
  2  6  2  0  0  0  0
  3  5  1  0  0  0  0
  3  7  2  0  0  0  0
  4 11  1  0  0  0  0
  5  6  1  0  0  0  0
  5  8  2  0  0  0  0
  6 11  1  0  0  0  0
  7  9  1  0  0  0  0
  7 10  1  0  0  0  0
  8  9  1  0  0  0  0
  1 12  1  0  0  0  0
  2 13  1  0  0  0  0
  3 14  1  0  0  0  0
  4 15  1  0  0  0  0
  9 16  1  0  0  0  0
 10 17  1  0  0  0  0
 10 18  1  0  0  0  0
M  END
$$$$
frag.vs.091
  -OEChem-01121112253D

 20 21  0     0  0  0  0  0  0999 V2000
    0.1787   -0.5940   -2.3264 C   0  0  0  0  0  0  0  0  0  0  0  0
   -0.6419   -0.8583   -1.2040 C   0  0  0  0  0  0  0  0  0  0  0  0
   -0.3338   -3.9603    0.9374 C   0  0  0  0  0  0  0  0  0  0  0  0
    1.0408   -1.6609   -2.4291 C   0  0  0  0  0  0  0  0  0  0  0  0
   -0.2230   -2.0681   -0.7009 C   0  0  0  0  0  0  0  0  0  0  0  0
   -0.7416   -2.7565    0.4267 C   0  0  0  0  0  0  0  0  0  0  0  0
   -1.1824   -4.1602    2.0400 C   0  0  0  0  0  0  0  0  0  0  0  0
   -1.1984   -5.3003    2.9702 C   0  0  0  0  0  0  0  0  0  0  0  0
   -2.0500   -3.1572    2.2008 N   0  0  0  0  0  0  0  0  0  0  0  0
   -1.7968   -6.4899    2.4000 N   0  0  0  0  0  0  0  0  0  0  0  0
    0.8024   -2.5639   -1.4420 O   0  0  0  0  0  0  0  0  0  0  0  0
   -1.7653   -2.2672    1.1721 O   0  0  0  0  0  0  0  0  0  0  0  0
    0.1458    0.2666   -2.9786 H   0  0  0  0  0  0  0  0  0  0  0  0
   -1.4381   -0.2375   -0.8165 H   0  0  0  0  0  0  0  0  0  0  0  0
    0.4573   -4.5995    0.5719 H   0  0  0  0  0  0  0  0  0  0  0  0
    1.8388   -1.9151   -3.1113 H   0  0  0  0  0  0  0  0  0  0  0  0
   -0.1804   -5.5853    3.2965 H   0  0  0  0  0  0  0  0  0  0  0  0
   -1.7606   -5.0816    3.8974 H   0  0  0  0  0  0  0  0  0  0  0  0
   -2.2225   -7.1565    3.0159 H   0  0  0  0  0  0  0  0  0  0  0  0
   -1.5962   -6.7181    1.4445 H   0  0  0  0  0  0  0  0  0  0  0  0
  1  2  1  0  0  0  0
  1  4  2  0  0  0  0
  2  5  2  0  0  0  0
  3  6  2  0  0  0  0
  3  7  1  0  0  0  0
  4 11  1  0  0  0  0
  5  6  1  0  0  0  0
  5 11  1  0  0  0  0
  6 12  1  0  0  0  0
  7  8  1  0  0  0  0
  7  9  2  0  0  0  0
  8 10  1  0  0  0  0
  9 12  1  0  0  0  0
  1 13  1  0  0  0  0
  2 14  1  0  0  0  0
  3 15  1  0  0  0  0
  4 16  1  0  0  0  0
  8 17  1  0  0  0  0
  8 18  1  0  0  0  0
 10 19  1  0  0  0  0
 10 20  1  0  0  0  0
M  END
$$$$
frag.vs.092
  -OEChem-01121112253D

 19 20  0     0  0  0  0  0  0999 V2000
   -0.0492    0.1944   -2.7301 C   0  0  0  0  0  0  0  0  0  0  0  0
   -0.1631   -1.0202   -1.9938 C   0  0  0  0  0  0  0  0  0  0  0  0
   -1.1415   -3.3225   -0.1732 C   0  0  0  0  0  0  0  0  0  0  0  0
   -1.1537    1.0019   -2.5703 C   0  0  0  0  0  0  0  0  0  0  0  0
   -1.7934   -2.1538   -0.4653 C   0  0  0  0  0  0  0  0  0  0  0  0
   -1.3504   -1.0945   -1.2990 C   0  0  0  0  0  0  0  0  0  0  0  0
   -2.0274   -3.9932    0.6875 C   0  0  0  0  0  0  0  0  0  0  0  0
   -1.8465   -5.3093    1.3206 C   0  0  0  0  0  0  0  0  0  0  0  0
   -3.1434   -3.2940    0.9121 N   0  0  0  0  0  0  0  0  0  0  0  0
   -2.9893   -2.1250    0.1765 O   0  0  0  0  0  0  0  0  0  0  0  0
   -1.5321   -5.1503    2.7055 O   0  0  0  0  0  0  0  0  0  0  0  0
   -2.3216    0.2959   -1.5360 S   0  0  0  0  0  0  0  0  0  0  0  0
    0.8000    0.4626   -3.3451 H   0  0  0  0  0  0  0  0  0  0  0  0
    0.5941   -1.7943   -1.9794 H   0  0  0  0  0  0  0  0  0  0  0  0
   -0.1720   -3.6446   -0.5259 H   0  0  0  0  0  0  0  0  0  0  0  0
   -1.3307    1.9724   -3.0116 H   0  0  0  0  0  0  0  0  0  0  0  0
   -2.7539   -5.9378    1.2512 H   0  0  0  0  0  0  0  0  0  0  0  0
   -1.0292   -5.8883    0.8517 H   0  0  0  0  0  0  0  0  0  0  0  0
   -1.4254   -6.0435    3.0649 H   0  0  0  0  0  0  0  0  0  0  0  0
  1  2  1  0  0  0  0
  1  4  2  0  0  0  0
  2  6  2  0  0  0  0
  3  5  2  0  0  0  0
  3  7  1  0  0  0  0
  4 12  1  0  0  0  0
  5  6  1  0  0  0  0
  5 10  1  0  0  0  0
  6 12  1  0  0  0  0
  7  8  1  0  0  0  0
  7  9  2  0  0  0  0
  8 11  1  0  0  0  0
  9 10  1  0  0  0  0
  1 13  1  0  0  0  0
  2 14  1  0  0  0  0
  3 15  1  0  0  0  0
  4 16  1  0  0  0  0
  8 17  1  0  0  0  0
  8 18  1  0  0  0  0
 11 19  1  0  0  0  0
M  END
$$$$
frag.vs.093_0
  -OEChem-01121112253D

 24 25  0     1  0  0  0  0  0999 V2000
    1.8190    0.2993    1.1225 C   0  0  0  0  0  0  0  0  0  0  0  0
    0.4296    0.1508    0.9868 C   0  0  0  0  0  0  0  0  0  0  0  0
    2.3937    0.4827    2.3810 C   0  0  0  0  0  0  0  0  0  0  0  0
   -0.4047    0.1883    2.1074 C   0  0  0  0  0  0  0  0  0  0  0  0
    1.5537    0.5234    3.4800 C   0  0  0  0  0  0  0  0  0  0  0  0
    0.1697    0.3912    3.3496 C   0  0  0  0  0  0  0  0  0  0  0  0
    0.2162    2.1688    6.0198 C   0  0  0  0  0  0  0  0  0  0  0  0
    1.9078    0.6698    4.9268 C   0  0  0  0  0  0  0  0  0  0  0  0
    0.5180    0.7478    5.5919 C   0  0  2  0  0  0  0  0  0  0  0  0
    0.9415    3.8898    7.4676 C   0  0  0  0  0  0  0  0  0  0  0  0
   -0.4728    0.4197    4.5809 N   0  0  0  0  0  0  0  0  0  0  0  0
   -0.6982    2.8421    5.5640 O   0  0  0  0  0  0  0  0  0  0  0  0
    1.1117    2.5583    6.9713 O   0  0  0  0  0  0  0  0  0  0  0  0
    2.4521    0.2633    0.2402 H   0  0  0  0  0  0  0  0  0  0  0  0
    0.0003    0.0000   -0.0001 H   0  0  0  0  0  0  0  0  0  0  0  0
    3.4678    0.5841    2.4895 H   0  0  0  0  0  0  0  0  0  0  0  0
   -1.4767    0.0627    1.9967 H   0  0  0  0  0  0  0  0  0  0  0  0
    2.4452   -0.2230    5.2646 H   0  0  0  0  0  0  0  0  0  0  0  0
    2.5217    1.5579    5.1065 H   0  0  0  0  0  0  0  0  0  0  0  0
    0.4373    0.1127    6.4574 H   0  0  0  0  0  0  0  0  0  0  0  0
    1.7054    4.0993    8.2203 H   0  0  0  0  0  0  0  0  0  0  0  0
   -0.0546    3.9917    7.9057 H   0  0  0  0  0  0  0  0  0  0  0  0
    1.0467    4.5941    6.6390 H   0  0  0  0  0  0  0  0  0  0  0  0
   -1.4696    0.5335    4.6920 H   0  0  0  0  0  0  0  0  0  0  0  0
  1  2  1  0  0  0  0
  1  3  2  0  0  0  0
  2  4  2  0  0  0  0
  3  5  1  0  0  0  0
  4  6  1  0  0  0  0
  5  6  2  0  0  0  0
  5  8  1  0  0  0  0
  6 11  1  0  0  0  0
  7  9  1  0  0  0  0
  7 12  2  0  0  0  0
  7 13  1  0  0  0  0
  8  9  1  0  0  0  0
  9 11  1  0  0  0  0
 10 13  1  0  0  0  0
  1 14  1  0  0  0  0
  2 15  1  0  0  0  0
  3 16  1  0  0  0  0
  4 17  1  0  0  0  0
  8 18  1  0  0  0  0
  8 19  1  0  0  0  0
  9 20  1  0  0  0  0
 10 21  1  0  0  0  0
 10 22  1  0  0  0  0
 10 23  1  0  0  0  0
 11 24  1  0  0  0  0
M  END
$$$$
frag.vs.093_1
  -OEChem-01121112253D

 24 25  0     1  0  0  0  0  0999 V2000
    1.7922    1.0346    0.6127 C   0  0  0  0  0  0  0  0  0  0  0  0
    0.4027    0.8430    0.5550 C   0  0  0  0  0  0  0  0  0  0  0  0
    2.3312    2.1166    1.3104 C   0  0  0  0  0  0  0  0  0  0  0  0
   -0.4669    1.7284    1.1981 C   0  0  0  0  0  0  0  0  0  0  0  0
    1.4574    2.9806    1.9468 C   0  0  0  0  0  0  0  0  0  0  0  0
    0.0751    2.7870    1.9052 C   0  0  0  0  0  0  0  0  0  0  0  0
    0.2468    4.4009    4.7149 C   0  0  0  0  0  0  0  0  0  0  0  0
    1.7650    4.2230    2.7228 C   0  0  0  0  0  0  0  0  0  0  0  0
    0.3705    4.6325    3.2406 C   0  0  1  0  0  0  0  0  0  0  0  0
    1.1423    5.0547    6.8016 C   0  0  0  0  0  0  0  0  0  0  0  0
   -0.6105    3.7929    2.5742 N   0  0  0  0  0  0  0  0  0  0  0  0
   -0.5538    3.6270    5.2221 O   0  0  0  0  0  0  0  0  0  0  0  0
    1.1520    5.1773    5.3758 O   0  0  0  0  0  0  0  0  0  0  0  0
    2.4530    0.3389    0.1028 H   0  0  0  0  0  0  0  0  0  0  0  0
    0.0002    0.0004   -0.0008 H   0  0  0  0  0  0  0  0  0  0  0  0
    3.4035    2.2747    1.3439 H   0  0  0  0  0  0  0  0  0  0  0  0
   -1.5402    1.5798    1.1422 H   0  0  0  0  0  0  0  0  0  0  0  0
    2.4839    4.0323    3.5257 H   0  0  0  0  0  0  0  0  0  0  0  0
    2.1632    4.9879    2.0473 H   0  0  0  0  0  0  0  0  0  0  0  0
    0.1722    5.6924    3.0493 H   0  0  0  0  0  0  0  0  0  0  0  0
    1.9004    5.7149    7.2300 H   0  0  0  0  0  0  0  0  0  0  0  0
    1.3471    4.0180    7.0805 H   0  0  0  0  0  0  0  0  0  0  0  0
    0.1574    5.3430    7.1765 H   0  0  0  0  0  0  0  0  0  0  0  0
   -1.5871    3.7379    2.8232 H   0  0  0  0  0  0  0  0  0  0  0  0
  1  2  1  0  0  0  0
  1  3  2  0  0  0  0
  2  4  2  0  0  0  0
  3  5  1  0  0  0  0
  4  6  1  0  0  0  0
  5  6  2  0  0  0  0
  5  8  1  0  0  0  0
  6 11  1  0  0  0  0
  7  9  1  0  0  0  0
  7 12  2  0  0  0  0
  7 13  1  0  0  0  0
  8  9  1  0  0  0  0
  9 11  1  0  0  0  0
 10 13  1  0  0  0  0
  1 14  1  0  0  0  0
  2 15  1  0  0  0  0
  3 16  1  0  0  0  0
  4 17  1  0  0  0  0
  8 18  1  0  0  0  0
  8 19  1  0  0  0  0
  9 20  1  0  0  0  0
 10 21  1  0  0  0  0
 10 22  1  0  0  0  0
 10 23  1  0  0  0  0
 11 24  1  0  0  0  0
M  END
$$$$
frag.vs.094_0
  -OEChem-01121112253D

 22 23  0     1  0  0  0  0  0999 V2000
    0.9292    1.1525    2.1514 C   0  0  0  0  0  0  0  0  0  0  0  0
   -0.4592    1.0433    2.3272 C   0  0  0  0  0  0  0  0  0  0  0  0
    1.5392    0.6605    0.9965 C   0  0  0  0  0  0  0  0  0  0  0  0
   -1.2556    0.4350    1.3531 C   0  0  0  0  0  0  0  0  0  0  0  0
    0.7380    0.0542    0.0451 C   0  0  0  0  0  0  0  0  0  0  0  0
   -0.6408   -0.0752    0.2231 C   0  0  0  0  0  0  0  0  0  0  0  0
    1.1238   -0.5049   -1.2862 C   0  0  0  0  0  0  0  0  0  0  0  0
   -0.1960   -1.1862   -1.7367 C   0  0  2  0  0  0  0  0  0  0  0  0
   -0.5216   -0.9153   -3.1966 C   0  0  0  0  0  0  0  0  0  0  0  0
   -1.2570   -0.6639   -0.8769 N   0  0  0  0  0  0  0  0  0  0  0  0
   -1.7299   -1.5798   -3.5254 O   0  0  0  0  0  0  0  0  0  0  0  0
    1.5318    1.6334    2.9171 H   0  0  0  0  0  0  0  0  0  0  0  0
   -0.9190    1.4425    3.2272 H   0  0  0  0  0  0  0  0  0  0  0  0
    2.6091    0.7601    0.8506 H   0  0  0  0  0  0  0  0  0  0  0  0
   -2.3299    0.3658    1.4891 H   0  0  0  0  0  0  0  0  0  0  0  0
    1.4229    0.3039   -1.9612 H   0  0  0  0  0  0  0  0  0  0  0  0
    1.9343   -1.2354   -1.2040 H   0  0  0  0  0  0  0  0  0  0  0  0
   -0.1166   -2.2693   -1.5766 H   0  0  0  0  0  0  0  0  0  0  0  0
    0.2782   -1.2914   -3.8378 H   0  0  0  0  0  0  0  0  0  0  0  0
   -0.6472    0.1565   -3.3630 H   0  0  0  0  0  0  0  0  0  0  0  0
   -2.1851   -1.0606   -0.8324 H   0  0  0  0  0  0  0  0  0  0  0  0
   -1.9128   -1.3897   -4.4609 H   0  0  0  0  0  0  0  0  0  0  0  0
  1  2  1  0  0  0  0
  1  3  2  0  0  0  0
  2  4  2  0  0  0  0
  3  5  1  0  0  0  0
  4  6  1  0  0  0  0
  5  6  2  0  0  0  0
  5  7  1  0  0  0  0
  6 10  1  0  0  0  0
  7  8  1  0  0  0  0
  8  9  1  0  0  0  0
  8 10  1  0  0  0  0
  9 11  1  0  0  0  0
  1 12  1  0  0  0  0
  2 13  1  0  0  0  0
  3 14  1  0  0  0  0
  4 15  1  0  0  0  0
  7 16  1  0  0  0  0
  7 17  1  0  0  0  0
  8 18  1  0  0  0  0
  9 19  1  0  0  0  0
  9 20  1  0  0  0  0
 10 21  1  0  0  0  0
 11 22  1  0  0  0  0
M  END
$$$$
frag.vs.094_1
  -OEChem-01121112253D

 22 23  0     1  0  0  0  0  0999 V2000
    1.7928    0.3899    1.1364 C   0  0  0  0  0  0  0  0  0  0  0  0
    0.4091    0.2084    0.9849 C   0  0  0  0  0  0  0  0  0  0  0  0
    2.3384    0.6735    2.3893 C   0  0  0  0  0  0  0  0  0  0  0  0
   -0.4472    0.3019    2.0855 C   0  0  0  0  0  0  0  0  0  0  0  0
    1.4783    0.7552    3.4703 C   0  0  0  0  0  0  0  0  0  0  0  0
    0.1034    0.5563    3.3294 C   0  0  0  0  0  0  0  0  0  0  0  0
    1.7905    1.0907    4.8928 C   0  0  0  0  0  0  0  0  0  0  0  0
    0.4293    0.8193    5.5872 C   0  0  1  0  0  0  0  0  0  0  0  0
    0.0580    1.9052    6.5841 C   0  0  0  0  0  0  0  0  0  0  0  0
   -0.5769    0.7386    4.5294 N   0  0  0  0  0  0  0  0  0  0  0  0
   -1.1970    1.5853    7.1606 O   0  0  0  0  0  0  0  0  0  0  0  0
    2.4421    0.3189    0.2680 H   0  0  0  0  0  0  0  0  0  0  0  0
   -0.0000    0.0000   -0.0000 H   0  0  0  0  0  0  0  0  0  0  0  0
    3.4048    0.8322    2.5053 H   0  0  0  0  0  0  0  0  0  0  0  0
   -1.5172    0.1737    1.9594 H   0  0  0  0  0  0  0  0  0  0  0  0
    2.5751    0.4472    5.3024 H   0  0  0  0  0  0  0  0  0  0  0  0
    2.0942    2.1399    4.9740 H   0  0  0  0  0  0  0  0  0  0  0  0
    0.4737   -0.1487    6.1033 H   0  0  0  0  0  0  0  0  0  0  0  0
   -0.0169    2.8708    6.0799 H   0  0  0  0  0  0  0  0  0  0  0  0
    0.8088    1.9650    7.3746 H   0  0  0  0  0  0  0  0  0  0  0  0
   -1.5166    0.3997    4.6783 H   0  0  0  0  0  0  0  0  0  0  0  0
   -1.4084    2.2939    7.7914 H   0  0  0  0  0  0  0  0  0  0  0  0
  1  2  1  0  0  0  0
  1  3  2  0  0  0  0
  2  4  2  0  0  0  0
  3  5  1  0  0  0  0
  4  6  1  0  0  0  0
  5  6  2  0  0  0  0
  5  7  1  0  0  0  0
  6 10  1  0  0  0  0
  7  8  1  0  0  0  0
  8  9  1  0  0  0  0
  8 10  1  0  0  0  0
  9 11  1  0  0  0  0
  1 12  1  0  0  0  0
  2 13  1  0  0  0  0
  3 14  1  0  0  0  0
  4 15  1  0  0  0  0
  7 16  1  0  0  0  0
  7 17  1  0  0  0  0
  8 18  1  0  0  0  0
  9 19  1  0  0  0  0
  9 20  1  0  0  0  0
 10 21  1  0  0  0  0
 11 22  1  0  0  0  0
M  END
$$$$
frag.vs.095
  -OEChem-01121112253D

 19 20  0     0  0  0  0  0  0999 V2000
   -0.7036    1.3640    1.5041 C   0  0  0  0  0  0  0  0  0  0  0  0
   -0.7671    0.1975    0.7446 C   0  0  0  0  0  0  0  0  0  0  0  0
   -1.6773    1.6439    2.4698 C   0  0  0  0  0  0  0  0  0  0  0  0
   -1.8022   -0.7245    0.9247 C   0  0  0  0  0  0  0  0  0  0  0  0
   -3.8586    0.6897    3.5356 C   0  0  0  0  0  0  0  0  0  0  0  0
   -2.7304    0.7292    2.6692 C   0  0  0  0  0  0  0  0  0  0  0  0
   -2.7685   -0.4315    1.8936 C   0  0  0  0  0  0  0  0  0  0  0  0
   -4.5471   -0.4724    3.2738 C   0  0  0  0  0  0  0  0  0  0  0  0
   -5.7447   -0.9510    3.8886 C   0  0  0  0  0  0  0  0  0  0  0  0
   -3.8818   -1.1421    2.2822 N   0  0  0  0  0  0  0  0  0  0  0  0
   -6.3918   -0.3821    4.7947 O   0  0  0  0  0  0  0  0  0  0  0  0
   -6.1714   -2.1547    3.3891 O   0  0  0  0  0  0  0  0  0  0  0  0
    0.1115    2.0654    1.3464 H   0  0  0  0  0  0  0  0  0  0  0  0
   -0.0004    0.0004   -0.0001 H   0  0  0  0  0  0  0  0  0  0  0  0
   -1.6155    2.5569    3.0554 H   0  0  0  0  0  0  0  0  0  0  0  0
   -1.8517   -1.6324    0.3329 H   0  0  0  0  0  0  0  0  0  0  0  0
   -4.1333    1.4346    4.2706 H   0  0  0  0  0  0  0  0  0  0  0  0
   -4.1646   -2.0294    1.8892 H   0  0  0  0  0  0  0  0  0  0  0  0
   -6.9939   -2.4917    3.8042 H   0  0  0  0  0  0  0  0  0  0  0  0
  1  2  1  0  0  0  0
  1  3  2  0  0  0  0
  2  4  2  0  0  0  0
  3  6  1  0  0  0  0
  4  7  1  0  0  0  0
  5  6  1  0  0  0  0
  5  8  2  0  0  0  0
  6  7  2  0  0  0  0
  7 10  1  0  0  0  0
  8  9  1  0  0  0  0
  8 10  1  0  0  0  0
  9 11  2  0  0  0  0
  9 12  1  0  0  0  0
  1 13  1  0  0  0  0
  2 14  1  0  0  0  0
  3 15  1  0  0  0  0
  4 16  1  0  0  0  0
  5 17  1  0  0  0  0
 10 18  1  0  0  0  0
 12 19  1  0  0  0  0
M  END
$$$$
frag.vs.096_0
  -OEChem-01121112253D

 21 22  0     1  0  0  0  0  0999 V2000
    1.0325   -1.8018    0.5919 C   0  0  0  0  0  0  0  0  0  0  0  0
    0.8354   -0.6633   -0.2073 C   0  0  0  0  0  0  0  0  0  0  0  0
    2.1037   -2.6656    0.3491 C   0  0  0  0  0  0  0  0  0  0  0  0
    1.7050   -0.3758   -1.2609 C   0  0  0  0  0  0  0  0  0  0  0  0
    2.9516   -2.3743   -0.7037 C   0  0  0  0  0  0  0  0  0  0  0  0
    2.7492   -1.2506   -1.4900 C   0  0  0  0  0  0  0  0  0  0  0  0
    4.1802   -3.0711   -1.1448 C   0  0  0  0  0  0  0  0  0  0  0  0
    4.3849   -2.3727   -2.4982 C   0  0  2  0  0  0  0  0  0  0  0  0
    5.8519   -2.1270   -2.8115 C   0  0  0  0  0  0  0  0  0  0  0  0
    3.6882   -1.0988   -2.4777 O   0  0  0  0  0  0  0  0  0  0  0  0
    5.9484   -1.4927   -4.0757 O   0  0  0  0  0  0  0  0  0  0  0  0
    0.3490   -2.0072    1.4114 H   0  0  0  0  0  0  0  0  0  0  0  0
    0.0008    0.0006    0.0006 H   0  0  0  0  0  0  0  0  0  0  0  0
    2.2643   -3.5358    0.9763 H   0  0  0  0  0  0  0  0  0  0  0  0
    1.5590    0.5045   -1.8765 H   0  0  0  0  0  0  0  0  0  0  0  0
    4.9982   -2.8713   -0.4448 H   0  0  0  0  0  0  0  0  0  0  0  0
    4.0481   -4.1499   -1.2648 H   0  0  0  0  0  0  0  0  0  0  0  0
    3.9376   -2.9710   -3.3039 H   0  0  0  0  0  0  0  0  0  0  0  0
    6.3944   -3.0740   -2.8454 H   0  0  0  0  0  0  0  0  0  0  0  0
    6.2970   -1.4800   -2.0529 H   0  0  0  0  0  0  0  0  0  0  0  0
    6.8937   -1.3485   -4.2494 H   0  0  0  0  0  0  0  0  0  0  0  0
  1  2  1  0  0  0  0
  1  3  2  0  0  0  0
  2  4  2  0  0  0  0
  3  5  1  0  0  0  0
  4  6  1  0  0  0  0
  5  6  2  0  0  0  0
  5  7  1  0  0  0  0
  6 10  1  0  0  0  0
  7  8  1  0  0  0  0
  8  9  1  0  0  0  0
  8 10  1  0  0  0  0
  9 11  1  0  0  0  0
  1 12  1  0  0  0  0
  2 13  1  0  0  0  0
  3 14  1  0  0  0  0
  4 15  1  0  0  0  0
  7 16  1  0  0  0  0
  7 17  1  0  0  0  0
  8 18  1  0  0  0  0
  9 19  1  0  0  0  0
  9 20  1  0  0  0  0
 11 21  1  0  0  0  0
M  END
$$$$
frag.vs.096_1
  -OEChem-01121112253D

 21 22  0     1  0  0  0  0  0999 V2000
    1.6817   -1.3272   -0.2703 C   0  0  0  0  0  0  0  0  0  0  0  0
    0.9256   -0.3726    0.4302 C   0  0  0  0  0  0  0  0  0  0  0  0
    2.8791   -1.8156    0.2593 C   0  0  0  0  0  0  0  0  0  0  0  0
    1.3556    0.1035    1.6702 C   0  0  0  0  0  0  0  0  0  0  0  0
    3.2881   -1.3430    1.4928 C   0  0  0  0  0  0  0  0  0  0  0  0
    2.5353   -0.4032    2.1797 C   0  0  0  0  0  0  0  0  0  0  0  0
    4.5236   -1.6369    2.2522 C   0  0  0  0  0  0  0  0  0  0  0  0
    4.1369   -1.0090    3.6005 C   0  0  1  0  0  0  0  0  0  0  0  0
    5.3111   -0.3285    4.2849 C   0  0  0  0  0  0  0  0  0  0  0  0
    3.0897   -0.0283    3.3766 O   0  0  0  0  0  0  0  0  0  0  0  0
    4.8646    0.2295    5.5093 O   0  0  0  0  0  0  0  0  0  0  0  0
    1.3348   -1.6825   -1.2369 H   0  0  0  0  0  0  0  0  0  0  0  0
    0.0005    0.0008   -0.0004 H   0  0  0  0  0  0  0  0  0  0  0  0
    3.4702   -2.5408   -0.2894 H   0  0  0  0  0  0  0  0  0  0  0  0
    0.7773    0.8438    2.2113 H   0  0  0  0  0  0  0  0  0  0  0  0
    4.7286   -2.7065    2.3508 H   0  0  0  0  0  0  0  0  0  0  0  0
    5.3790   -1.1345    1.7886 H   0  0  0  0  0  0  0  0  0  0  0  0
    3.7221   -1.7755    4.2695 H   0  0  0  0  0  0  0  0  0  0  0  0
    5.7061    0.4693    3.6526 H   0  0  0  0  0  0  0  0  0  0  0  0
    6.1008   -1.0539    4.4906 H   0  0  0  0  0  0  0  0  0  0  0  0
    5.6332    0.6564    5.9236 H   0  0  0  0  0  0  0  0  0  0  0  0
  1  2  1  0  0  0  0
  1  3  2  0  0  0  0
  2  4  2  0  0  0  0
  3  5  1  0  0  0  0
  4  6  1  0  0  0  0
  5  6  2  0  0  0  0
  5  7  1  0  0  0  0
  6 10  1  0  0  0  0
  7  8  1  0  0  0  0
  8  9  1  0  0  0  0
  8 10  1  0  0  0  0
  9 11  1  0  0  0  0
  1 12  1  0  0  0  0
  2 13  1  0  0  0  0
  3 14  1  0  0  0  0
  4 15  1  0  0  0  0
  7 16  1  0  0  0  0
  7 17  1  0  0  0  0
  8 18  1  0  0  0  0
  9 19  1  0  0  0  0
  9 20  1  0  0  0  0
 11 21  1  0  0  0  0
M  END
$$$$
frag.vs.097
  -OEChem-01121112253D

 17 18  0     0  0  0  0  0  0999 V2000
    2.1349   -0.2824   -0.0332 C   0  0  0  0  0  0  0  0  0  0  0  0
    0.9716    0.4797   -0.0722 C   0  0  0  0  0  0  0  0  0  0  0  0
    0.1025    2.9220   -0.2763 C   0  0  0  0  0  0  0  0  0  0  0  0
    3.3507    0.3712   -0.1283 C   0  0  0  0  0  0  0  0  0  0  0  0
    1.0807    1.8788   -0.2062 C   0  0  0  0  0  0  0  0  0  0  0  0
    0.6691    4.1706   -0.4090 C   0  0  0  0  0  0  0  0  0  0  0  0
    2.3668    2.4019   -0.2910 C   0  0  0  0  0  0  0  0  0  0  0  0
    0.0234    5.4392   -0.5095 C   0  0  0  0  0  0  0  0  0  0  0  0
    3.5216    1.7043   -0.2578 N   0  0  0  0  0  0  0  0  0  0  0  0
    0.5844    6.5514   -0.6293 O   0  0  0  0  0  0  0  0  0  0  0  0
   -1.3457    5.3621   -0.4653 O   0  0  0  0  0  0  0  0  0  0  0  0
    2.3769    4.0997   -0.4501 S   0  0  0  0  0  0  0  0  0  0  0  0
    2.0873   -1.3609    0.0687 H   0  0  0  0  0  0  0  0  0  0  0  0
   -0.0001    0.0000   -0.0004 H   0  0  0  0  0  0  0  0  0  0  0  0
   -0.9673    2.7563   -0.2299 H   0  0  0  0  0  0  0  0  0  0  0  0
    4.2750   -0.1997   -0.1016 H   0  0  0  0  0  0  0  0  0  0  0  0
   -1.7992    6.2292   -0.5345 H   0  0  0  0  0  0  0  0  0  0  0  0
  1  2  1  0  0  0  0
  1  4  2  0  0  0  0
  2  5  2  0  0  0  0
  3  5  1  0  0  0  0
  3  6  2  0  0  0  0
  4  9  1  0  0  0  0
  5  7  1  0  0  0  0
  6  8  1  0  0  0  0
  6 12  1  0  0  0  0
  7  9  2  0  0  0  0
  7 12  1  0  0  0  0
  8 10  2  0  0  0  0
  8 11  1  0  0  0  0
  1 13  1  0  0  0  0
  2 14  1  0  0  0  0
  3 15  1  0  0  0  0
  4 16  1  0  0  0  0
 11 17  1  0  0  0  0
M  END
$$$$
frag.vs.098
  -OEChem-01121112253D

 23 24  0     0  0  0  0  0  0999 V2000
    2.1349   -0.2824   -0.0332 C   0  0  0  0  0  0  0  0  0  0  0  0
    0.9716    0.4797   -0.0722 C   0  0  0  0  0  0  0  0  0  0  0  0
    0.1025    2.9220   -0.2763 C   0  0  0  0  0  0  0  0  0  0  0  0
    3.3507    0.3712   -0.1283 C   0  0  0  0  0  0  0  0  0  0  0  0
    1.0807    1.8788   -0.2062 C   0  0  0  0  0  0  0  0  0  0  0  0
    0.6691    4.1706   -0.4090 C   0  0  0  0  0  0  0  0  0  0  0  0
    2.3668    2.4019   -0.2910 C   0  0  0  0  0  0  0  0  0  0  0  0
    0.0234    5.4392   -0.5095 C   0  0  0  0  0  0  0  0  0  0  0  0
   -3.5868    6.2078   -0.4841 C   0  0  0  0  0  0  0  0  0  0  0  0
   -2.1135    6.5482   -0.5560 C   0  0  0  0  0  0  0  0  0  0  0  0
    3.5216    1.7043   -0.2578 N   0  0  0  0  0  0  0  0  0  0  0  0
    0.6044    6.5439   -0.6292 O   0  0  0  0  0  0  0  0  0  0  0  0
   -1.3508    5.3402   -0.4630 O   0  0  0  0  0  0  0  0  0  0  0  0
    2.3769    4.0997   -0.4501 S   0  0  0  0  0  0  0  0  0  0  0  0
    2.0873   -1.3609    0.0687 H   0  0  0  0  0  0  0  0  0  0  0  0
   -0.0001    0.0000   -0.0004 H   0  0  0  0  0  0  0  0  0  0  0  0
   -0.9673    2.7563   -0.2299 H   0  0  0  0  0  0  0  0  0  0  0  0
    4.2750   -0.1997   -0.1016 H   0  0  0  0  0  0  0  0  0  0  0  0
   -3.8756    5.5485   -1.3074 H   0  0  0  0  0  0  0  0  0  0  0  0
   -3.8231    5.7137    0.4640 H   0  0  0  0  0  0  0  0  0  0  0  0
   -4.1955    7.1170   -0.5295 H   0  0  0  0  0  0  0  0  0  0  0  0
   -1.8313    7.2077    0.2701 H   0  0  0  0  0  0  0  0  0  0  0  0
   -1.8791    7.0410   -1.5043 H   0  0  0  0  0  0  0  0  0  0  0  0
  1  2  2  0  0  0  0
  1  4  1  0  0  0  0
  2  5  1  0  0  0  0
  3  5  1  0  0  0  0
  3  6  2  0  0  0  0
  4 11  2  0  0  0  0
  5  7  2  0  0  0  0
  6  8  1  0  0  0  0
  6 14  1  0  0  0  0
  7 11  1  0  0  0  0
  7 14  1  0  0  0  0
  8 12  2  0  0  0  0
  8 13  1  0  0  0  0
  9 10  1  0  0  0  0
 10 13  1  0  0  0  0
  1 15  1  0  0  0  0
  2 16  1  0  0  0  0
  3 17  1  0  0  0  0
  4 18  1  0  0  0  0
  9 19  1  0  0  0  0
  9 20  1  0  0  0  0
  9 21  1  0  0  0  0
 10 22  1  0  0  0  0
 10 23  1  0  0  0  0
M  END
$$$$
frag.vs.099
  -OEChem-01121112253D

 18 19  0     0  0  0  0  0  0999 V2000
    2.1349   -0.2824   -0.0332 C   0  0  0  0  0  0  0  0  0  0  0  0
    0.9716    0.4797   -0.0722 C   0  0  0  0  0  0  0  0  0  0  0  0
    0.1025    2.9220   -0.2763 C   0  0  0  0  0  0  0  0  0  0  0  0
    3.3507    0.3712   -0.1283 C   0  0  0  0  0  0  0  0  0  0  0  0
    1.0807    1.8788   -0.2062 C   0  0  0  0  0  0  0  0  0  0  0  0
    0.6691    4.1706   -0.4090 C   0  0  0  0  0  0  0  0  0  0  0  0
    2.3668    2.4019   -0.2910 C   0  0  0  0  0  0  0  0  0  0  0  0
   -0.0083    5.4815   -0.5111 C   0  0  0  0  0  0  0  0  0  0  0  0
    3.5216    1.7043   -0.2578 N   0  0  0  0  0  0  0  0  0  0  0  0
    0.1137    6.1876    0.7223 O   0  0  0  0  0  0  0  0  0  0  0  0
    2.3769    4.0997   -0.4501 S   0  0  0  0  0  0  0  0  0  0  0  0
    2.0881   -1.3607    0.0691 H   0  0  0  0  0  0  0  0  0  0  0  0
    0.0003   -0.0006   -0.0001 H   0  0  0  0  0  0  0  0  0  0  0  0
   -0.9674    2.7579   -0.2307 H   0  0  0  0  0  0  0  0  0  0  0  0
    4.2750   -0.1995   -0.1006 H   0  0  0  0  0  0  0  0  0  0  0  0
    0.4242    6.1090   -1.3088 H   0  0  0  0  0  0  0  0  0  0  0  0
   -1.0817    5.3707   -0.7398 H   0  0  0  0  0  0  0  0  0  0  0  0
   -0.3441    7.0334    0.6013 H   0  0  0  0  0  0  0  0  0  0  0  0
  1  2  1  0  0  0  0
  1  4  2  0  0  0  0
  2  5  2  0  0  0  0
  3  5  1  0  0  0  0
  3  6  2  0  0  0  0
  4  9  1  0  0  0  0
  5  7  1  0  0  0  0
  6  8  1  0  0  0  0
  6 11  1  0  0  0  0
  7  9  2  0  0  0  0
  7 11  1  0  0  0  0
  8 10  1  0  0  0  0
  1 12  1  0  0  0  0
  2 13  1  0  0  0  0
  3 14  1  0  0  0  0
  4 15  1  0  0  0  0
  8 16  1  0  0  0  0
  8 17  1  0  0  0  0
 10 18  1  0  0  0  0
M  END
$$$$
frag.vs.100
  -OEChem-01121112253D

 29 30  0     0  0  0  0  0  0999 V2000
    2.0230   -2.4390    1.3055 C   0  0  0  0  0  0  0  0  0  0  0  0
    2.7406   -0.2479    0.5834 C   0  0  0  0  0  0  0  0  0  0  0  0
    5.1505   -3.8185    1.5392 C   0  0  0  0  0  0  0  0  0  0  0  0
    6.3532   -1.8286    0.8829 C   0  0  0  0  0  0  0  0  0  0  0  0
    0.9448   -1.8642    1.9782 C   0  0  0  0  0  0  0  0  0  0  0  0
    1.6623    0.3269    1.2561 C   0  0  0  0  0  0  0  0  0  0  0  0
    6.2083   -4.1831    2.3721 C   0  0  0  0  0  0  0  0  0  0  0  0
    7.4110   -2.1932    1.7158 C   0  0  0  0  0  0  0  0  0  0  0  0
    2.9210   -1.6309    0.6081 C   0  0  0  0  0  0  0  0  0  0  0  0
    5.2230   -2.6413    0.7945 C   0  0  0  0  0  0  0  0  0  0  0  0
    0.7644   -0.4813    1.9535 C   0  0  0  0  0  0  0  0  0  0  0  0
    7.3385   -3.3705    2.4605 C   0  0  0  0  0  0  0  0  0  0  0  0
    4.0744   -2.2445   -0.1110 C   0  0  0  0  0  0  0  0  0  0  0  0
   -0.3268    0.1001    2.6319 N   0  0  0  0  0  0  0  0  0  0  0  0
    8.4074   -3.7378    3.3039 N   0  0  0  0  0  0  0  0  0  0  0  0
    2.1566   -3.5171    1.3309 H   0  0  0  0  0  0  0  0  0  0  0  0
    3.4359    0.3897    0.0442 H   0  0  0  0  0  0  0  0  0  0  0  0
    4.2743   -4.4581    1.4757 H   0  0  0  0  0  0  0  0  0  0  0  0
    6.4192   -0.9105    0.3053 H   0  0  0  0  0  0  0  0  0  0  0  0
    0.2518   -2.5029    2.5198 H   0  0  0  0  0  0  0  0  0  0  0  0
    1.5318    1.4057    1.2307 H   0  0  0  0  0  0  0  0  0  0  0  0
    6.1422   -5.1033    2.9469 H   0  0  0  0  0  0  0  0  0  0  0  0
    8.2871   -1.5528    1.7764 H   0  0  0  0  0  0  0  0  0  0  0  0
    3.7470   -3.1315   -0.6815 H   0  0  0  0  0  0  0  0  0  0  0  0
    4.4542   -1.5593   -0.8893 H   0  0  0  0  0  0  0  0  0  0  0  0
   -0.9904   -0.4933    3.0875 H   0  0  0  0  0  0  0  0  0  0  0  0
   -0.4713    1.0875    2.5672 H   0  0  0  0  0  0  0  0  0  0  0  0
    8.3232   -4.5585    3.8691 H   0  0  0  0  0  0  0  0  0  0  0  0
    9.1910   -3.1231    3.3941 H   0  0  0  0  0  0  0  0  0  0  0  0
  1  5  1  0  0  0  0
  1  9  2  0  0  0  0
  2  6  2  0  0  0  0
  2  9  1  0  0  0  0
  3  7  2  0  0  0  0
  3 10  1  0  0  0  0
  4  8  1  0  0  0  0
  4 10  2  0  0  0  0
  5 11  2  0  0  0  0
  6 11  1  0  0  0  0
  7 12  1  0  0  0  0
  8 12  2  0  0  0  0
  9 13  1  0  0  0  0
 10 13  1  0  0  0  0
 11 14  1  0  0  0  0
 12 15  1  0  0  0  0
  1 16  1  0  0  0  0
  2 17  1  0  0  0  0
  3 18  1  0  0  0  0
  4 19  1  0  0  0  0
  5 20  1  0  0  0  0
  6 21  1  0  0  0  0
  7 22  1  0  0  0  0
  8 23  1  0  0  0  0
 13 24  1  0  0  0  0
 13 25  1  0  0  0  0
 14 26  1  0  0  0  0
 14 27  1  0  0  0  0
 15 28  1  0  0  0  0
 15 29  1  0  0  0  0
M  END
$$$$
frag.vs.101
  -OEChem-01121112253D

 30 31  0     0  0  0  0  0  0999 V2000
    0.8258   -2.8788    0.9496 C   0  0  0  0  0  0  0  0  0  0  0  0
   -1.0263   -3.2994   -0.5437 C   0  0  0  0  0  0  0  0  0  0  0  0
    0.1513   -3.5438    1.9736 C   0  0  0  0  0  0  0  0  0  0  0  0
   -1.7008   -3.9644    0.4803 C   0  0  0  0  0  0  0  0  0  0  0  0
    0.2370   -2.7566   -0.3090 C   0  0  0  0  0  0  0  0  0  0  0  0
   -1.1120   -4.0866    1.7389 C   0  0  0  0  0  0  0  0  0  0  0  0
    0.6677   -0.5045   -3.2485 C   0  0  0  0  0  0  0  0  0  0  0  0
    0.3195    0.2456   -0.9869 C   0  0  0  0  0  0  0  0  0  0  0  0
   -0.1268    0.7019   -3.7407 C   0  0  0  0  0  0  0  0  0  0  0  0
   -0.4677    1.4336   -1.5324 C   0  0  0  0  0  0  0  0  0  0  0  0
    0.9621   -2.0406   -1.4116 C   0  0  0  0  0  0  0  0  0  0  0  0
    0.2058   -0.8932   -1.9086 N   0  0  0  0  0  0  0  0  0  0  0  0
   -1.7935   -4.7606    2.7733 N   0  0  0  0  0  0  0  0  0  0  0  0
    0.0096    1.7929   -2.8294 O   0  0  0  0  0  0  0  0  0  0  0  0
    1.8092   -2.4581    1.1416 H   0  0  0  0  0  0  0  0  0  0  0  0
   -1.4935   -3.2076   -1.5204 H   0  0  0  0  0  0  0  0  0  0  0  0
    0.6185   -3.6321    2.9510 H   0  0  0  0  0  0  0  0  0  0  0  0
   -2.6851   -4.3829    0.2864 H   0  0  0  0  0  0  0  0  0  0  0  0
    0.5306   -1.3327   -3.9530 H   0  0  0  0  0  0  0  0  0  0  0  0
    1.7358   -0.2521   -3.2236 H   0  0  0  0  0  0  0  0  0  0  0  0
    1.3725    0.5312   -0.8637 H   0  0  0  0  0  0  0  0  0  0  0  0
   -0.0775   -0.0223   -0.0011 H   0  0  0  0  0  0  0  0  0  0  0  0
    0.2572    1.0299   -4.7119 H   0  0  0  0  0  0  0  0  0  0  0  0
   -1.1895    0.4619   -3.8681 H   0  0  0  0  0  0  0  0  0  0  0  0
   -1.5419    1.2179   -1.5841 H   0  0  0  0  0  0  0  0  0  0  0  0
   -0.3354    2.3007   -0.8774 H   0  0  0  0  0  0  0  0  0  0  0  0
    1.9348   -1.6776   -1.0620 H   0  0  0  0  0  0  0  0  0  0  0  0
    1.1498   -2.7099   -2.2578 H   0  0  0  0  0  0  0  0  0  0  0  0
   -1.3409   -4.8839    3.6565 H   0  0  0  0  0  0  0  0  0  0  0  0
   -2.6775   -5.1858    2.5788 H   0  0  0  0  0  0  0  0  0  0  0  0
  1  3  1  0  0  0  0
  1  5  2  0  0  0  0
  2  4  2  0  0  0  0
  2  5  1  0  0  0  0
  3  6  2  0  0  0  0
  4  6  1  0  0  0  0
  5 11  1  0  0  0  0
  6 13  1  0  0  0  0
  7  9  1  0  0  0  0
  7 12  1  0  0  0  0
  8 10  1  0  0  0  0
  8 12  1  0  0  0  0
  9 14  1  0  0  0  0
 10 14  1  0  0  0  0
 11 12  1  0  0  0  0
  1 15  1  0  0  0  0
  2 16  1  0  0  0  0
  3 17  1  0  0  0  0
  4 18  1  0  0  0  0
  7 19  1  0  0  0  0
  7 20  1  0  0  0  0
  8 21  1  0  0  0  0
  8 22  1  0  0  0  0
  9 23  1  0  0  0  0
  9 24  1  0  0  0  0
 10 25  1  0  0  0  0
 10 26  1  0  0  0  0
 11 27  1  0  0  0  0
 11 28  1  0  0  0  0
 13 29  1  0  0  0  0
 13 30  1  0  0  0  0
M  END
$$$$
frag.vs.102
  -OEChem-01121112253D

 33 34  0     0  0  0  0  0  0999 V2000
    2.6301   -0.8203    2.7250 C   0  0  0  0  0  0  0  0  0  0  0  0
    2.8308   -3.2137    2.4631 C   0  0  0  0  0  0  0  0  0  0  0  0
    1.4740   -0.8319    1.9447 C   0  0  0  0  0  0  0  0  0  0  0  0
    1.6746   -3.2253    1.6828 C   0  0  0  0  0  0  0  0  0  0  0  0
    3.3086   -2.0112    2.9841 C   0  0  0  0  0  0  0  0  0  0  0  0
    0.9962   -2.0343    1.4237 C   0  0  0  0  0  0  0  0  0  0  0  0
   -0.0659   -2.5404   -0.7376 C   0  0  0  0  0  0  0  0  0  0  0  0
   -1.2132   -1.0480    0.8757 C   0  0  0  0  0  0  0  0  0  0  0  0
   -1.4461   -2.9538   -1.2359 C   0  0  0  0  0  0  0  0  0  0  0  0
   -2.5323   -1.5406    0.2908 C   0  0  0  0  0  0  0  0  0  0  0  0
    6.8842   -1.4753    3.9369 C   0  0  0  0  0  0  0  0  0  0  0  0
    4.5450   -1.9998    3.8178 C   0  0  0  0  0  0  0  0  0  0  0  0
   -0.1641   -2.0466    0.6428 N   0  0  0  0  0  0  0  0  0  0  0  0
    5.6850   -1.4882    3.1002 N   0  0  0  0  0  0  0  0  0  0  0  0
   -2.3732   -1.8788   -1.0865 O   0  0  0  0  0  0  0  0  0  0  0  0
    2.9958    0.1211    3.1260 H   0  0  0  0  0  0  0  0  0  0  0  0
    3.3537   -4.1461    2.6582 H   0  0  0  0  0  0  0  0  0  0  0  0
    0.9538    0.1020    1.7477 H   0  0  0  0  0  0  0  0  0  0  0  0
    1.3117   -4.1679    1.2813 H   0  0  0  0  0  0  0  0  0  0  0  0
    0.6155   -3.3973   -0.7961 H   0  0  0  0  0  0  0  0  0  0  0  0
    0.3303   -1.7408   -1.3766 H   0  0  0  0  0  0  0  0  0  0  0  0
   -0.9269   -0.1060    0.3905 H   0  0  0  0  0  0  0  0  0  0  0  0
   -1.3382   -0.8580    1.9482 H   0  0  0  0  0  0  0  0  0  0  0  0
   -1.3968   -3.2110   -2.2987 H   0  0  0  0  0  0  0  0  0  0  0  0
   -1.8187   -3.8347   -0.6991 H   0  0  0  0  0  0  0  0  0  0  0  0
   -2.9097   -2.4130    0.8381 H   0  0  0  0  0  0  0  0  0  0  0  0
   -3.2895   -0.7532    0.3601 H   0  0  0  0  0  0  0  0  0  0  0  0
    6.7153   -0.8626    4.8262 H   0  0  0  0  0  0  0  0  0  0  0  0
    7.7293   -1.0617    3.3799 H   0  0  0  0  0  0  0  0  0  0  0  0
    7.1360   -2.4914    4.2523 H   0  0  0  0  0  0  0  0  0  0  0  0
    4.4128   -1.3774    4.7140 H   0  0  0  0  0  0  0  0  0  0  0  0
    4.8044   -3.0085    4.1680 H   0  0  0  0  0  0  0  0  0  0  0  0
    5.8703   -2.0682    2.2758 H   0  0  0  0  0  0  0  0  0  0  0  0
  1  3  2  0  0  0  0
  1  5  1  0  0  0  0
  2  4  1  0  0  0  0
  2  5  2  0  0  0  0
  3  6  1  0  0  0  0
  4  6  2  0  0  0  0
  5 12  1  0  0  0  0
  6 13  1  0  0  0  0
  7  9  1  0  0  0  0
  7 13  1  0  0  0  0
  8 10  1  0  0  0  0
  8 13  1  0  0  0  0
  9 15  1  0  0  0  0
 10 15  1  0  0  0  0
 11 14  1  0  0  0  0
 12 14  1  0  0  0  0
  1 16  1  0  0  0  0
  2 17  1  0  0  0  0
  3 18  1  0  0  0  0
  4 19  1  0  0  0  0
  7 20  1  0  0  0  0
  7 21  1  0  0  0  0
  8 22  1  0  0  0  0
  8 23  1  0  0  0  0
  9 24  1  0  0  0  0
  9 25  1  0  0  0  0
 10 26  1  0  0  0  0
 10 27  1  0  0  0  0
 11 28  1  0  0  0  0
 11 29  1  0  0  0  0
 11 30  1  0  0  0  0
 12 31  1  0  0  0  0
 12 32  1  0  0  0  0
 14 33  1  0  0  0  0
M  END
$$$$
frag.vs.103
  -OEChem-01121112253D

 22 23  0     0  0  0  0  0  0999 V2000
   -0.7671    0.1975    0.7446 C   0  0  0  0  0  0  0  0  0  0  0  0
   -1.8022   -0.7245    0.9247 C   0  0  0  0  0  0  0  0  0  0  0  0
   -3.8586    0.6897    3.5356 C   0  0  0  0  0  0  0  0  0  0  0  0
   -1.6773    1.6439    2.4698 C   0  0  0  0  0  0  0  0  0  0  0  0
   -4.5471   -0.4724    3.2738 C   0  0  0  0  0  0  0  0  0  0  0  0
   -2.7304    0.7292    2.6692 C   0  0  0  0  0  0  0  0  0  0  0  0
   -0.7036    1.3640    1.5041 C   0  0  0  0  0  0  0  0  0  0  0  0
   -2.7685   -0.4315    1.8936 C   0  0  0  0  0  0  0  0  0  0  0  0
    0.3860    2.3039    1.2914 C   0  0  0  0  0  0  0  0  0  0  0  0
   -4.3022   -2.4132    1.7331 C   0  0  0  0  0  0  0  0  0  0  0  0
   -3.8818   -1.1421    2.2822 N   0  0  0  0  0  0  0  0  0  0  0  0
    1.2993    2.1671    0.4711 O   0  0  0  0  0  0  0  0  0  0  0  0
    0.3037    3.3894    2.1086 O   0  0  0  0  0  0  0  0  0  0  0  0
   -0.0060   -0.0110   -0.0042 H   0  0  0  0  0  0  0  0  0  0  0  0
   -1.8474   -1.6312    0.3308 H   0  0  0  0  0  0  0  0  0  0  0  0
   -4.1382    1.4316    4.2711 H   0  0  0  0  0  0  0  0  0  0  0  0
   -1.6260    2.5541    3.0619 H   0  0  0  0  0  0  0  0  0  0  0  0
   -5.4515   -0.8742    3.7108 H   0  0  0  0  0  0  0  0  0  0  0  0
   -4.9673   -2.2126    0.8890 H   0  0  0  0  0  0  0  0  0  0  0  0
   -3.4243   -2.9754    1.4029 H   0  0  0  0  0  0  0  0  0  0  0  0
   -4.8243   -2.9854    2.5050 H   0  0  0  0  0  0  0  0  0  0  0  0
    1.0339    4.0301    1.9722 H   0  0  0  0  0  0  0  0  0  0  0  0
  1  2  1  0  0  0  0
  1  7  2  0  0  0  0
  2  8  2  0  0  0  0
  3  5  2  0  0  0  0
  3  6  1  0  0  0  0
  4  6  2  0  0  0  0
  4  7  1  0  0  0  0
  5 11  1  0  0  0  0
  6  8  1  0  0  0  0
  7  9  1  0  0  0  0
  8 11  1  0  0  0  0
  9 12  2  0  0  0  0
  9 13  1  0  0  0  0
 10 11  1  0  0  0  0
  1 14  1  0  0  0  0
  2 15  1  0  0  0  0
  3 16  1  0  0  0  0
  4 17  1  0  0  0  0
  5 18  1  0  0  0  0
 10 19  1  0  0  0  0
 10 20  1  0  0  0  0
 10 21  1  0  0  0  0
 13 22  1  0  0  0  0
M  END
$$$$
frag.vs.104
  -OEChem-01121112253D

 31 32  0     1  0  0  0  0  0999 V2000
    2.4590   -0.8271   -0.8759 C   0  0  0  0  0  0  0  0  0  0  0  0
    1.9487    0.3294   -0.2882 C   0  0  0  0  0  0  0  0  0  0  0  0
    0.2654   -1.8075   -0.8073 C   0  0  0  0  0  0  0  0  0  0  0  0
    1.6164   -1.8937   -1.1399 C   0  0  0  0  0  0  0  0  0  0  0  0
    0.5836    0.4530    0.0489 C   0  0  0  0  0  0  0  0  0  0  0  0
   -0.2796   -0.6558   -0.1996 C   0  0  0  0  0  0  0  0  0  0  0  0
   -1.3715    1.7878    0.6333 C   0  0  0  0  0  0  0  0  0  0  0  0
   -2.0347    0.4864    1.0499 C   0  0  0  0  0  0  0  0  0  0  0  0
    0.9054    2.7991    0.8385 C   0  0  0  0  0  0  0  0  0  0  0  0
   -2.5350   -1.7116   -0.0302 C   0  0  0  0  0  0  0  0  0  0  0  0
    2.1537   -3.1323   -1.7734 C   0  0  0  0  0  0  0  0  0  0  0  0
    0.0763    1.6235    0.6248 N   0  0  2  0  0  0  0  0  0  0  0  0
   -1.6340   -0.5836    0.1457 N   0  0  2  0  0  0  0  0  0  0  0  0
    2.2974   -4.2121   -0.8301 N   0  0  0  0  0  0  0  0  0  0  0  0
    3.5151   -0.8794   -1.1263 H   0  0  0  0  0  0  0  0  0  0  0  0
    2.6473    1.1431   -0.1094 H   0  0  0  0  0  0  0  0  0  0  0  0
   -0.3622   -2.6696   -1.0229 H   0  0  0  0  0  0  0  0  0  0  0  0
   -1.7105    2.0930   -0.3649 H   0  0  0  0  0  0  0  0  0  0  0  0
   -1.6676    2.5767    1.3343 H   0  0  0  0  0  0  0  0  0  0  0  0
   -1.7540    0.2207    2.0771 H   0  0  0  0  0  0  0  0  0  0  0  0
   -3.1224    0.6215    1.0330 H   0  0  0  0  0  0  0  0  0  0  0  0
    0.3153    3.5966    1.2975 H   0  0  0  0  0  0  0  0  0  0  0  0
    1.3031    3.1593   -0.1142 H   0  0  0  0  0  0  0  0  0  0  0  0
    1.7426    2.5563    1.4984 H   0  0  0  0  0  0  0  0  0  0  0  0
   -3.5418   -1.4434    0.3005 H   0  0  0  0  0  0  0  0  0  0  0  0
   -2.1884   -2.5672    0.5556 H   0  0  0  0  0  0  0  0  0  0  0  0
   -2.5762   -2.0017   -1.0836 H   0  0  0  0  0  0  0  0  0  0  0  0
    1.4936   -3.4836   -2.5788 H   0  0  0  0  0  0  0  0  0  0  0  0
    3.1401   -2.9587   -2.2250 H   0  0  0  0  0  0  0  0  0  0  0  0
    2.9793   -4.9299   -1.0095 H   0  0  0  0  0  0  0  0  0  0  0  0
    1.5899   -4.3434   -0.1267 H   0  0  0  0  0  0  0  0  0  0  0  0
  1  2  1  0  0  0  0
  1  4  2  0  0  0  0
  2  5  2  0  0  0  0
  3  4  1  0  0  0  0
  3  6  2  0  0  0  0
  4 11  1  0  0  0  0
  5  6  1  0  0  0  0
  5 12  1  0  0  0  0
  6 13  1  0  0  0  0
  7  8  1  0  0  0  0
  7 12  1  0  0  0  0
  8 13  1  0  0  0  0
  9 12  1  0  0  0  0
 10 13  1  0  0  0  0
 11 14  1  0  0  0  0
  1 15  1  0  0  0  0
  2 16  1  0  0  0  0
  3 17  1  0  0  0  0
  7 18  1  0  0  0  0
  7 19  1  0  0  0  0
  8 20  1  0  0  0  0
  8 21  1  0  0  0  0
  9 22  1  0  0  0  0
  9 23  1  0  0  0  0
  9 24  1  0  0  0  0
 10 25  1  0  0  0  0
 10 26  1  0  0  0  0
 10 27  1  0  0  0  0
 11 28  1  0  0  0  0
 11 29  1  0  0  0  0
 14 30  1  0  0  0  0
 14 31  1  0  0  0  0
M  END
$$$$
frag.vs.105
  -OEChem-01121112253D

 31 32  0     0  0  0  0  0  0999 V2000
    0.1528   -3.5437    1.9736 C   0  0  0  0  0  0  0  0  0  0  0  0
   -1.1103   -4.0871    1.7397 C   0  0  0  0  0  0  0  0  0  0  0  0
    0.8265   -2.8784    0.9493 C   0  0  0  0  0  0  0  0  0  0  0  0
   -1.0261   -3.3000   -0.5430 C   0  0  0  0  0  0  0  0  0  0  0  0
   -1.6998   -3.9652    0.4814 C   0  0  0  0  0  0  0  0  0  0  0  0
    0.2370   -2.7566   -0.3090 C   0  0  0  0  0  0  0  0  0  0  0  0
   -3.0171   -4.5314    0.2381 C   0  0  0  0  0  0  0  0  0  0  0  0
    0.6677   -0.5045   -3.2485 C   0  0  0  0  0  0  0  0  0  0  0  0
    0.3195    0.2456   -0.9869 C   0  0  0  0  0  0  0  0  0  0  0  0
   -0.1268    0.7019   -3.7407 C   0  0  0  0  0  0  0  0  0  0  0  0
   -0.4677    1.4336   -1.5324 C   0  0  0  0  0  0  0  0  0  0  0  0
    0.9621   -2.0406   -1.4116 C   0  0  0  0  0  0  0  0  0  0  0  0
    0.2058   -0.8932   -1.9086 N   0  0  0  0  0  0  0  0  0  0  0  0
   -3.6308   -4.4825   -0.8330 O   0  0  0  0  0  0  0  0  0  0  0  0
    0.0096    1.7929   -2.8294 O   0  0  0  0  0  0  0  0  0  0  0  0
   -3.5317   -5.1445    1.3392 O   0  0  0  0  0  0  0  0  0  0  0  0
    0.6123   -3.6396    2.9531 H   0  0  0  0  0  0  0  0  0  0  0  0
   -1.6266   -4.6030    2.5453 H   0  0  0  0  0  0  0  0  0  0  0  0
    1.8102   -2.4576    1.1408 H   0  0  0  0  0  0  0  0  0  0  0  0
   -1.4839   -3.2050   -1.5251 H   0  0  0  0  0  0  0  0  0  0  0  0
    0.5306   -1.3327   -3.9530 H   0  0  0  0  0  0  0  0  0  0  0  0
    1.7358   -0.2521   -3.2236 H   0  0  0  0  0  0  0  0  0  0  0  0
    1.3725    0.5312   -0.8637 H   0  0  0  0  0  0  0  0  0  0  0  0
   -0.0775   -0.0223   -0.0011 H   0  0  0  0  0  0  0  0  0  0  0  0
    0.2572    1.0299   -4.7119 H   0  0  0  0  0  0  0  0  0  0  0  0
   -1.1895    0.4619   -3.8681 H   0  0  0  0  0  0  0  0  0  0  0  0
   -1.5419    1.2179   -1.5841 H   0  0  0  0  0  0  0  0  0  0  0  0
   -0.3354    2.3007   -0.8774 H   0  0  0  0  0  0  0  0  0  0  0  0
    1.9348   -1.6776   -1.0620 H   0  0  0  0  0  0  0  0  0  0  0  0
    1.1498   -2.7099   -2.2578 H   0  0  0  0  0  0  0  0  0  0  0  0
   -4.4202   -5.5306    1.1850 H   0  0  0  0  0  0  0  0  0  0  0  0
  1  2  2  0  0  0  0
  1  3  1  0  0  0  0
  2  5  1  0  0  0  0
  3  6  2  0  0  0  0
  4  5  2  0  0  0  0
  4  6  1  0  0  0  0
  5  7  1  0  0  0  0
  6 12  1  0  0  0  0
  7 14  2  0  0  0  0
  7 16  1  0  0  0  0
  8 10  1  0  0  0  0
  8 13  1  0  0  0  0
  9 11  1  0  0  0  0
  9 13  1  0  0  0  0
 10 15  1  0  0  0  0
 11 15  1  0  0  0  0
 12 13  1  0  0  0  0
  1 17  1  0  0  0  0
  2 18  1  0  0  0  0
  3 19  1  0  0  0  0
  4 20  1  0  0  0  0
  8 21  1  0  0  0  0
  8 22  1  0  0  0  0
  9 23  1  0  0  0  0
  9 24  1  0  0  0  0
 10 25  1  0  0  0  0
 10 26  1  0  0  0  0
 11 27  1  0  0  0  0
 11 28  1  0  0  0  0
 12 29  1  0  0  0  0
 12 30  1  0  0  0  0
 16 31  1  0  0  0  0
M  END
$$$$
frag.vs.106
  -OEChem-01121112253D

 36 37  0     0  0  0  0  0  0999 V2000
   -0.9036   -5.1608   -0.3371 C   0  0  0  0  0  0  0  0  0  0  0  0
   -0.1020   -4.2864   -1.0707 C   0  0  0  0  0  0  0  0  0  0  0  0
   -1.5032   -4.7306    0.8466 C   0  0  0  0  0  0  0  0  0  0  0  0
   -0.4993   -2.5515    0.5631 C   0  0  0  0  0  0  0  0  0  0  0  0
    0.1003   -2.9817   -0.6206 C   0  0  0  0  0  0  0  0  0  0  0  0
   -1.3010   -3.4259    1.2967 C   0  0  0  0  0  0  0  0  0  0  0  0
    2.6435   -0.3217   -1.2154 C   0  0  0  0  0  0  0  0  0  0  0  0
    3.1523   -2.5812   -0.5566 C   0  0  0  0  0  0  0  0  0  0  0  0
    3.8381    0.1564   -0.3948 C   0  0  0  0  0  0  0  0  0  0  0  0
    4.3341   -2.0498    0.2494 C   0  0  0  0  0  0  0  0  0  0  0  0
   -1.6474   -2.4232    4.8822 C   0  0  0  0  0  0  0  0  0  0  0  0
    0.9621   -2.0406   -1.4116 C   0  0  0  0  0  0  0  0  0  0  0  0
   -1.9417   -2.9662    2.5628 C   0  0  0  0  0  0  0  0  0  0  0  0
    2.1011   -1.5574   -0.6337 N   0  0  0  0  0  0  0  0  0  0  0  0
   -1.0034   -2.8851    3.6533 N   0  0  0  0  0  0  0  0  0  0  0  0
    4.8444   -0.8558   -0.3449 O   0  0  0  0  0  0  0  0  0  0  0  0
   -1.0611   -6.1767   -0.6877 H   0  0  0  0  0  0  0  0  0  0  0  0
    0.3607   -4.6303   -1.9922 H   0  0  0  0  0  0  0  0  0  0  0  0
   -2.1257   -5.4190    1.4121 H   0  0  0  0  0  0  0  0  0  0  0  0
   -0.3428   -1.5342    0.9140 H   0  0  0  0  0  0  0  0  0  0  0  0
    1.8787    0.4633   -1.2216 H   0  0  0  0  0  0  0  0  0  0  0  0
    2.9599   -0.4968   -2.2520 H   0  0  0  0  0  0  0  0  0  0  0  0
    3.4913   -2.8547   -1.5644 H   0  0  0  0  0  0  0  0  0  0  0  0
    2.7675   -3.4851   -0.0706 H   0  0  0  0  0  0  0  0  0  0  0  0
    4.2805    1.0422   -0.8618 H   0  0  0  0  0  0  0  0  0  0  0  0
    3.5441    0.4311    0.6255 H   0  0  0  0  0  0  0  0  0  0  0  0
    4.0564   -1.8506    1.2916 H   0  0  0  0  0  0  0  0  0  0  0  0
    5.1420   -2.7886    0.2575 H   0  0  0  0  0  0  0  0  0  0  0  0
   -2.0989   -1.4405    4.7232 H   0  0  0  0  0  0  0  0  0  0  0  0
   -0.9126   -2.3466    5.6882 H   0  0  0  0  0  0  0  0  0  0  0  0
   -2.4290   -3.1247    5.1860 H   0  0  0  0  0  0  0  0  0  0  0  0
    1.3515   -2.5350   -2.3083 H   0  0  0  0  0  0  0  0  0  0  0  0
    0.3894   -1.1684   -1.7439 H   0  0  0  0  0  0  0  0  0  0  0  0
   -2.3919   -1.9713    2.4401 H   0  0  0  0  0  0  0  0  0  0  0  0
   -2.7487   -3.6433    2.8748 H   0  0  0  0  0  0  0  0  0  0  0  0
   -0.5894   -3.8059    3.8298 H   0  0  0  0  0  0  0  0  0  0  0  0
  1  2  1  0  0  0  0
  1  3  2  0  0  0  0
  2  5  2  0  0  0  0
  3  6  1  0  0  0  0
  4  5  1  0  0  0  0
  4  6  2  0  0  0  0
  5 12  1  0  0  0  0
  6 13  1  0  0  0  0
  7  9  1  0  0  0  0
  7 14  1  0  0  0  0
  8 10  1  0  0  0  0
  8 14  1  0  0  0  0
  9 16  1  0  0  0  0
 10 16  1  0  0  0  0
 11 15  1  0  0  0  0
 12 14  1  0  0  0  0
 13 15  1  0  0  0  0
  1 17  1  0  0  0  0
  2 18  1  0  0  0  0
  3 19  1  0  0  0  0
  4 20  1  0  0  0  0
  7 21  1  0  0  0  0
  7 22  1  0  0  0  0
  8 23  1  0  0  0  0
  8 24  1  0  0  0  0
  9 25  1  0  0  0  0
  9 26  1  0  0  0  0
 10 27  1  0  0  0  0
 10 28  1  0  0  0  0
 11 29  1  0  0  0  0
 11 30  1  0  0  0  0
 11 31  1  0  0  0  0
 12 32  1  0  0  0  0
 12 33  1  0  0  0  0
 13 34  1  0  0  0  0
 13 35  1  0  0  0  0
 15 36  1  0  0  0  0
M  END
$$$$
frag.vs.107
  -OEChem-01121112253D

 24 25  0     0  0  0  0  0  0999 V2000
    5.6086   -3.0478   -1.4396 C   0  0  0  0  0  0  0  0  0  0  0  0
    1.8851   -1.0363   -0.1124 C   0  0  0  0  0  0  0  0  0  0  0  0
    2.8783   -1.6520    2.0022 C   0  0  0  0  0  0  0  0  0  0  0  0
    0.8066   -0.4630    0.5610 C   0  0  0  0  0  0  0  0  0  0  0  0
    1.7997   -1.0786    2.6757 C   0  0  0  0  0  0  0  0  0  0  0  0
    4.3691   -2.3649   -1.4155 C   0  0  0  0  0  0  0  0  0  0  0  0
    5.9450   -3.2752   -0.1254 C   0  0  0  0  0  0  0  0  0  0  0  0
    2.9210   -1.6309    0.6081 C   0  0  0  0  0  0  0  0  0  0  0  0
    0.7638   -0.4841    1.9551 C   0  0  0  0  0  0  0  0  0  0  0  0
    4.0364   -2.2239   -0.0883 C   0  0  0  0  0  0  0  0  0  0  0  0
   -0.3896    0.1284    2.6750 C   0  0  0  0  0  0  0  0  0  0  0  0
   -1.2981   -0.8611    3.1964 N   0  0  0  0  0  0  0  0  0  0  0  0
    4.9918   -2.7762    0.7046 O   0  0  0  0  0  0  0  0  0  0  0  0
    6.1844   -3.3378   -2.3064 H   0  0  0  0  0  0  0  0  0  0  0  0
    1.9038   -1.0120   -1.1995 H   0  0  0  0  0  0  0  0  0  0  0  0
    3.6782   -2.1113    2.5781 H   0  0  0  0  0  0  0  0  0  0  0  0
    0.0037   -0.0023   -0.0084 H   0  0  0  0  0  0  0  0  0  0  0  0
    1.7751   -1.0999    3.7620 H   0  0  0  0  0  0  0  0  0  0  0  0
    3.7940   -2.0206   -2.2635 H   0  0  0  0  0  0  0  0  0  0  0  0
    6.7834   -3.7531    0.3598 H   0  0  0  0  0  0  0  0  0  0  0  0
   -0.0483    0.7413    3.5211 H   0  0  0  0  0  0  0  0  0  0  0  0
   -0.9693    0.7908    2.0174 H   0  0  0  0  0  0  0  0  0  0  0  0
   -2.2619   -0.6112    3.3411 H   0  0  0  0  0  0  0  0  0  0  0  0
   -0.9238   -1.7061    3.5944 H   0  0  0  0  0  0  0  0  0  0  0  0
  1  6  1  0  0  0  0
  1  7  2  0  0  0  0
  2  4  2  0  0  0  0
  2  8  1  0  0  0  0
  3  5  1  0  0  0  0
  3  8  2  0  0  0  0
  4  9  1  0  0  0  0
  5  9  2  0  0  0  0
  6 10  2  0  0  0  0
  7 13  1  0  0  0  0
  8 10  1  0  0  0  0
  9 11  1  0  0  0  0
 10 13  1  0  0  0  0
 11 12  1  0  0  0  0
  1 14  1  0  0  0  0
  2 15  1  0  0  0  0
  3 16  1  0  0  0  0
  4 17  1  0  0  0  0
  5 18  1  0  0  0  0
  6 19  1  0  0  0  0
  7 20  1  0  0  0  0
 11 21  1  0  0  0  0
 11 22  1  0  0  0  0
 12 23  1  0  0  0  0
 12 24  1  0  0  0  0
M  END
$$$$
frag.vs.108
  -OEChem-01121112253D

 23 24  0     0  0  0  0  0  0999 V2000
    5.6086   -3.0478   -1.4396 C   0  0  0  0  0  0  0  0  0  0  0  0
    1.8851   -1.0363   -0.1124 C   0  0  0  0  0  0  0  0  0  0  0  0
    2.8783   -1.6520    2.0022 C   0  0  0  0  0  0  0  0  0  0  0  0
    0.8066   -0.4630    0.5610 C   0  0  0  0  0  0  0  0  0  0  0  0
    1.7997   -1.0786    2.6757 C   0  0  0  0  0  0  0  0  0  0  0  0
    4.3691   -2.3649   -1.4155 C   0  0  0  0  0  0  0  0  0  0  0  0
    5.9450   -3.2752   -0.1254 C   0  0  0  0  0  0  0  0  0  0  0  0
    2.9210   -1.6309    0.6081 C   0  0  0  0  0  0  0  0  0  0  0  0
    0.7638   -0.4841    1.9551 C   0  0  0  0  0  0  0  0  0  0  0  0
    4.0364   -2.2239   -0.0883 C   0  0  0  0  0  0  0  0  0  0  0  0
   -0.3896    0.1284    2.6750 C   0  0  0  0  0  0  0  0  0  0  0  0
    4.9918   -2.7762    0.7046 O   0  0  0  0  0  0  0  0  0  0  0  0
   -1.2389   -0.9003    3.1685 O   0  0  0  0  0  0  0  0  0  0  0  0
    6.1844   -3.3378   -2.3064 H   0  0  0  0  0  0  0  0  0  0  0  0
    1.9038   -1.0120   -1.1995 H   0  0  0  0  0  0  0  0  0  0  0  0
    3.6782   -2.1113    2.5781 H   0  0  0  0  0  0  0  0  0  0  0  0
    0.0037   -0.0023   -0.0084 H   0  0  0  0  0  0  0  0  0  0  0  0
    1.7751   -1.0999    3.7620 H   0  0  0  0  0  0  0  0  0  0  0  0
    3.7940   -2.0206   -2.2635 H   0  0  0  0  0  0  0  0  0  0  0  0
    6.7834   -3.7531    0.3598 H   0  0  0  0  0  0  0  0  0  0  0  0
   -0.0534    0.7422    3.5219 H   0  0  0  0  0  0  0  0  0  0  0  0
   -0.9732    0.7786    2.0089 H   0  0  0  0  0  0  0  0  0  0  0  0
   -1.9723   -0.4605    3.6275 H   0  0  0  0  0  0  0  0  0  0  0  0
  1  6  1  0  0  0  0
  1  7  2  0  0  0  0
  2  4  2  0  0  0  0
  2  8  1  0  0  0  0
  3  5  1  0  0  0  0
  3  8  2  0  0  0  0
  4  9  1  0  0  0  0
  5  9  2  0  0  0  0
  6 10  2  0  0  0  0
  7 12  1  0  0  0  0
  8 10  1  0  0  0  0
  9 11  1  0  0  0  0
 10 12  1  0  0  0  0
 11 13  1  0  0  0  0
  1 14  1  0  0  0  0
  2 15  1  0  0  0  0
  3 16  1  0  0  0  0
  4 17  1  0  0  0  0
  5 18  1  0  0  0  0
  6 19  1  0  0  0  0
  7 20  1  0  0  0  0
 11 21  1  0  0  0  0
 11 22  1  0  0  0  0
 13 23  1  0  0  0  0
M  END
$$$$
frag.vs.109
  -OEChem-01121112253D

 21 22  0     0  0  0  0  0  0999 V2000
    5.6086   -3.0478   -1.4395 C   0  0  0  0  0  0  0  0  0  0  0  0
    1.8851   -1.0363   -0.1124 C   0  0  0  0  0  0  0  0  0  0  0  0
    2.8783   -1.6520    2.0022 C   0  0  0  0  0  0  0  0  0  0  0  0
    0.8066   -0.4630    0.5610 C   0  0  0  0  0  0  0  0  0  0  0  0
    1.7997   -1.0786    2.6757 C   0  0  0  0  0  0  0  0  0  0  0  0
    4.3692   -2.3649   -1.4154 C   0  0  0  0  0  0  0  0  0  0  0  0
    5.9450   -3.2752   -0.1253 C   0  0  0  0  0  0  0  0  0  0  0  0
    2.9210   -1.6309    0.6081 C   0  0  0  0  0  0  0  0  0  0  0  0
    0.7638   -0.4841    1.9551 C   0  0  0  0  0  0  0  0  0  0  0  0
    4.0364   -2.2239   -0.0882 C   0  0  0  0  0  0  0  0  0  0  0  0
   -0.3267    0.0955    2.6361 N   0  0  0  0  0  0  0  0  0  0  0  0
    4.9918   -2.7762    0.7047 O   0  0  0  0  0  0  0  0  0  0  0  0
    6.1845   -3.3378   -2.3063 H   0  0  0  0  0  0  0  0  0  0  0  0
    1.9040   -1.0119   -1.1995 H   0  0  0  0  0  0  0  0  0  0  0  0
    3.6781   -2.1116    2.5780 H   0  0  0  0  0  0  0  0  0  0  0  0
    0.0045   -0.0025   -0.0102 H   0  0  0  0  0  0  0  0  0  0  0  0
    1.7767   -1.1007    3.7622 H   0  0  0  0  0  0  0  0  0  0  0  0
    3.7940   -2.0206   -2.2635 H   0  0  0  0  0  0  0  0  0  0  0  0
    6.7834   -3.7531    0.3599 H   0  0  0  0  0  0  0  0  0  0  0  0
   -1.0393    0.5599    2.1102 H   0  0  0  0  0  0  0  0  0  0  0  0
   -0.3224    0.1155    3.6359 H   0  0  0  0  0  0  0  0  0  0  0  0
  1  6  1  0  0  0  0
  1  7  2  0  0  0  0
  2  4  2  0  0  0  0
  2  8  1  0  0  0  0
  3  5  1  0  0  0  0
  3  8  2  0  0  0  0
  4  9  1  0  0  0  0
  5  9  2  0  0  0  0
  6 10  2  0  0  0  0
  7 12  1  0  0  0  0
  8 10  1  0  0  0  0
  9 11  1  0  0  0  0
 10 12  1  0  0  0  0
  1 13  1  0  0  0  0
  2 14  1  0  0  0  0
  3 15  1  0  0  0  0
  4 16  1  0  0  0  0
  5 17  1  0  0  0  0
  6 18  1  0  0  0  0
  7 19  1  0  0  0  0
 11 20  1  0  0  0  0
 11 21  1  0  0  0  0
M  END
$$$$
frag.vs.110
  -OEChem-01121112253D

 19 20  0     0  0  0  0  0  0999 V2000
   -0.7036    1.3640    1.5041 C   0  0  0  0  0  0  0  0  0  0  0  0
   -0.7671    0.1975    0.7446 C   0  0  0  0  0  0  0  0  0  0  0  0
   -1.6773    1.6439    2.4698 C   0  0  0  0  0  0  0  0  0  0  0  0
   -1.8022   -0.7245    0.9247 C   0  0  0  0  0  0  0  0  0  0  0  0
   -4.5471   -0.4724    3.2738 C   0  0  0  0  0  0  0  0  0  0  0  0
   -2.7304    0.7292    2.6692 C   0  0  0  0  0  0  0  0  0  0  0  0
   -3.8586    0.6897    3.5356 C   0  0  0  0  0  0  0  0  0  0  0  0
   -2.7685   -0.4315    1.8936 C   0  0  0  0  0  0  0  0  0  0  0  0
   -4.2534    1.6563    4.5207 C   0  0  0  0  0  0  0  0  0  0  0  0
   -3.8818   -1.1421    2.2822 N   0  0  0  0  0  0  0  0  0  0  0  0
   -3.6587    2.7187    4.7875 O   0  0  0  0  0  0  0  0  0  0  0  0
   -5.3981    1.3110    5.1867 O   0  0  0  0  0  0  0  0  0  0  0  0
    0.1117    2.0653    1.3461 H   0  0  0  0  0  0  0  0  0  0  0  0
   -0.0004    0.0001   -0.0004 H   0  0  0  0  0  0  0  0  0  0  0  0
   -1.6135    2.5573    3.0540 H   0  0  0  0  0  0  0  0  0  0  0  0
   -1.8504   -1.6320    0.3325 H   0  0  0  0  0  0  0  0  0  0  0  0
   -5.4501   -0.8853    3.7021 H   0  0  0  0  0  0  0  0  0  0  0  0
   -4.1666   -2.0295    1.8914 H   0  0  0  0  0  0  0  0  0  0  0  0
   -5.6769    1.9658    5.8618 H   0  0  0  0  0  0  0  0  0  0  0  0
  1  2  1  0  0  0  0
  1  3  2  0  0  0  0
  2  4  2  0  0  0  0
  3  6  1  0  0  0  0
  4  8  1  0  0  0  0
  5  7  2  0  0  0  0
  5 10  1  0  0  0  0
  6  7  1  0  0  0  0
  6  8  2  0  0  0  0
  7  9  1  0  0  0  0
  8 10  1  0  0  0  0
  9 11  2  0  0  0  0
  9 12  1  0  0  0  0
  1 13  1  0  0  0  0
  2 14  1  0  0  0  0
  3 15  1  0  0  0  0
  4 16  1  0  0  0  0
  5 17  1  0  0  0  0
 10 18  1  0  0  0  0
 12 19  1  0  0  0  0
M  END
$$$$
frag.vs.111
  -OEChem-01121112253D

 22 23  0     0  0  0  0  0  0999 V2000
   -0.7036    1.3640    1.5041 C   0  0  0  0  0  0  0  0  0  0  0  0
   -0.7671    0.1975    0.7446 C   0  0  0  0  0  0  0  0  0  0  0  0
   -1.6773    1.6439    2.4698 C   0  0  0  0  0  0  0  0  0  0  0  0
   -1.8022   -0.7245    0.9247 C   0  0  0  0  0  0  0  0  0  0  0  0
   -4.5471   -0.4724    3.2738 C   0  0  0  0  0  0  0  0  0  0  0  0
   -2.7304    0.7292    2.6692 C   0  0  0  0  0  0  0  0  0  0  0  0
   -3.8586    0.6897    3.5356 C   0  0  0  0  0  0  0  0  0  0  0  0
   -2.7685   -0.4315    1.8936 C   0  0  0  0  0  0  0  0  0  0  0  0
   -4.2534    1.6563    4.5207 C   0  0  0  0  0  0  0  0  0  0  0  0
   -5.9021    2.1773    6.1867 C   0  0  0  0  0  0  0  0  0  0  0  0
   -3.8818   -1.1421    2.2822 N   0  0  0  0  0  0  0  0  0  0  0  0
   -3.6429    2.7162    4.7733 O   0  0  0  0  0  0  0  0  0  0  0  0
   -5.4048    1.2911    5.1782 O   0  0  0  0  0  0  0  0  0  0  0  0
    0.1117    2.0653    1.3461 H   0  0  0  0  0  0  0  0  0  0  0  0
   -0.0004    0.0001   -0.0004 H   0  0  0  0  0  0  0  0  0  0  0  0
   -1.6135    2.5573    3.0540 H   0  0  0  0  0  0  0  0  0  0  0  0
   -1.8504   -1.6320    0.3325 H   0  0  0  0  0  0  0  0  0  0  0  0
   -5.4501   -0.8853    3.7021 H   0  0  0  0  0  0  0  0  0  0  0  0
   -6.8149    1.7614    6.6203 H   0  0  0  0  0  0  0  0  0  0  0  0
   -6.1088    3.1550    5.7442 H   0  0  0  0  0  0  0  0  0  0  0  0
   -5.1466    2.2857    6.9686 H   0  0  0  0  0  0  0  0  0  0  0  0
   -4.1666   -2.0295    1.8914 H   0  0  0  0  0  0  0  0  0  0  0  0
  1  2  2  0  0  0  0
  1  3  1  0  0  0  0
  2  4  1  0  0  0  0
  3  6  2  0  0  0  0
  4  8  2  0  0  0  0
  5  7  2  0  0  0  0
  5 11  1  0  0  0  0
  6  7  1  0  0  0  0
  6  8  1  0  0  0  0
  7  9  1  0  0  0  0
  8 11  1  0  0  0  0
  9 12  2  0  0  0  0
  9 13  1  0  0  0  0
 10 13  1  0  0  0  0
  1 14  1  0  0  0  0
  2 15  1  0  0  0  0
  3 16  1  0  0  0  0
  4 17  1  0  0  0  0
  5 18  1  0  0  0  0
 10 19  1  0  0  0  0
 10 20  1  0  0  0  0
 10 21  1  0  0  0  0
 11 22  1  0  0  0  0
M  END
$$$$
frag.vs.112
  -OEChem-01121112253D

 20 21  0     0  0  0  0  0  0999 V2000
   -0.7036    1.3640    1.5041 C   0  0  0  0  0  0  0  0  0  0  0  0
   -0.7671    0.1975    0.7446 C   0  0  0  0  0  0  0  0  0  0  0  0
   -1.6773    1.6439    2.4698 C   0  0  0  0  0  0  0  0  0  0  0  0
   -1.8022   -0.7245    0.9247 C   0  0  0  0  0  0  0  0  0  0  0  0
   -4.5471   -0.4724    3.2738 C   0  0  0  0  0  0  0  0  0  0  0  0
   -2.7304    0.7292    2.6692 C   0  0  0  0  0  0  0  0  0  0  0  0
   -3.8586    0.6897    3.5356 C   0  0  0  0  0  0  0  0  0  0  0  0
   -2.7685   -0.4315    1.8936 C   0  0  0  0  0  0  0  0  0  0  0  0
   -4.2341    1.7076    4.5379 C   0  0  0  0  0  0  0  0  0  0  0  0
   -3.8818   -1.1421    2.2822 N   0  0  0  0  0  0  0  0  0  0  0  0
   -3.3763    1.6112    5.6744 O   0  0  0  0  0  0  0  0  0  0  0  0
    0.1112    2.0654    1.3462 H   0  0  0  0  0  0  0  0  0  0  0  0
   -0.0003    0.0001   -0.0001 H   0  0  0  0  0  0  0  0  0  0  0  0
   -1.6132    2.5572    3.0545 H   0  0  0  0  0  0  0  0  0  0  0  0
   -1.8514   -1.6318    0.3322 H   0  0  0  0  0  0  0  0  0  0  0  0
   -5.4494   -0.8842    3.7045 H   0  0  0  0  0  0  0  0  0  0  0  0
   -4.1554    2.7334    4.1376 H   0  0  0  0  0  0  0  0  0  0  0  0
   -5.2752    1.5809    4.8823 H   0  0  0  0  0  0  0  0  0  0  0  0
   -4.1662   -2.0297    1.8914 H   0  0  0  0  0  0  0  0  0  0  0  0
   -3.6656    2.2969    6.2953 H   0  0  0  0  0  0  0  0  0  0  0  0
  1  2  1  0  0  0  0
  1  3  2  0  0  0  0
  2  4  2  0  0  0  0
  3  6  1  0  0  0  0
  4  8  1  0  0  0  0
  5  7  2  0  0  0  0
  5 10  1  0  0  0  0
  6  7  1  0  0  0  0
  6  8  2  0  0  0  0
  7  9  1  0  0  0  0
  8 10  1  0  0  0  0
  9 11  1  0  0  0  0
  1 12  1  0  0  0  0
  2 13  1  0  0  0  0
  3 14  1  0  0  0  0
  4 15  1  0  0  0  0
  5 16  1  0  0  0  0
  9 17  1  0  0  0  0
  9 18  1  0  0  0  0
 10 19  1  0  0  0  0
 11 20  1  0  0  0  0
M  END
$$$$
frag.vs.113
  -OEChem-01121112253D

 32 33  0     1  0  0  0  0  0999 V2000
    0.4532    5.4187   -2.8954 C   0  0  0  0  0  0  0  0  0  0  0  0
    1.6438    4.7363   -2.6458 C   0  0  0  0  0  0  0  0  0  0  0  0
   -0.7490    4.7162   -2.9787 C   0  0  0  0  0  0  0  0  0  0  0  0
    0.4301    2.6489   -2.5632 C   0  0  0  0  0  0  0  0  0  0  0  0
    1.6323    3.3514   -2.4797 C   0  0  0  0  0  0  0  0  0  0  0  0
   -0.7605    3.3314   -2.8127 C   0  0  0  0  0  0  0  0  0  0  0  0
    0.4261    0.9035    1.3749 C   0  0  0  0  0  0  0  0  0  0  0  0
    0.2632   -0.4932    1.9775 C   0  0  0  0  0  0  0  0  0  0  0  0
    0.9921    0.9393   -0.0455 C   0  0  0  0  0  0  0  0  0  0  0  0
   -1.2501   -1.1066    0.1490 C   0  0  0  0  0  0  0  0  0  0  0  0
   -0.5735   -0.6120   -1.1332 C   0  0  0  0  0  0  0  0  0  0  0  0
    0.4568    1.1591   -2.3792 C   0  0  0  0  0  0  0  0  0  0  0  0
   -0.2614   -1.5492    1.1199 N   0  0  0  0  0  0  0  0  0  0  0  0
   -0.0533    0.7593   -1.0634 N   0  0  2  0  0  0  0  0  0  0  0  0
    2.7827    2.7060   -2.2410 F   0  0  0  0  0  0  0  0  0  0  0  0
   -2.2676    2.4970   -2.9240 Cl  0  0  0  0  0  0  0  0  0  0  0  0
    0.4630    6.4968   -3.0251 H   0  0  0  0  0  0  0  0  0  0  0  0
    2.5799    5.2832   -2.5809 H   0  0  0  0  0  0  0  0  0  0  0  0
   -1.6684    5.2627   -3.1738 H   0  0  0  0  0  0  0  0  0  0  0  0
   -0.5330    1.4373    1.4055 H   0  0  0  0  0  0  0  0  0  0  0  0
    1.0980    1.4712    2.0318 H   0  0  0  0  0  0  0  0  0  0  0  0
    1.2363   -0.8277    2.3579 H   0  0  0  0  0  0  0  0  0  0  0  0
   -0.3827   -0.4121    2.8605 H   0  0  0  0  0  0  0  0  0  0  0  0
    1.4324    1.9370   -0.1744 H   0  0  0  0  0  0  0  0  0  0  0  0
    1.8095    0.2173   -0.1667 H   0  0  0  0  0  0  0  0  0  0  0  0
   -1.9519   -0.3727    0.5628 H   0  0  0  0  0  0  0  0  0  0  0  0
   -1.8555   -1.9830   -0.1125 H   0  0  0  0  0  0  0  0  0  0  0  0
    0.2085   -1.3150   -1.4525 H   0  0  0  0  0  0  0  0  0  0  0  0
   -1.3434   -0.6412   -1.9162 H   0  0  0  0  0  0  0  0  0  0  0  0
   -0.1544    0.6648   -3.1422 H   0  0  0  0  0  0  0  0  0  0  0  0
    1.4756    0.7693   -2.4758 H   0  0  0  0  0  0  0  0  0  0  0  0
    0.5078   -2.0185    0.6430 H   0  0  0  0  0  0  0  0  0  0  0  0
  1  2  1  0  0  0  0
  1  3  2  0  0  0  0
  2  5  2  0  0  0  0
  3  6  1  0  0  0  0
  4  5  1  0  0  0  0
  4  6  2  0  0  0  0
  4 12  1  0  0  0  0
  5 15  1  0  0  0  0
  6 16  1  0  0  0  0
  7  8  1  0  0  0  0
  7  9  1  0  0  0  0
  8 13  1  0  0  0  0
  9 14  1  0  0  0  0
 10 11  1  0  0  0  0
 10 13  1  0  0  0  0
 11 14  1  0  0  0  0
 12 14  1  0  0  0  0
  1 17  1  0  0  0  0
  2 18  1  0  0  0  0
  3 19  1  0  0  0  0
  7 20  1  0  0  0  0
  7 21  1  0  0  0  0
  8 22  1  0  0  0  0
  8 23  1  0  0  0  0
  9 24  1  0  0  0  0
  9 25  1  0  0  0  0
 10 26  1  0  0  0  0
 10 27  1  0  0  0  0
 11 28  1  0  0  0  0
 11 29  1  0  0  0  0
 12 30  1  0  0  0  0
 12 31  1  0  0  0  0
 13 32  1  0  0  0  0
M  END
$$$$
frag.vs.114
  -OEChem-01121112253D

 29 30  0     0  0  0  0  0  0999 V2000
   -2.3159   -5.0809    6.2334 C   0  0  0  0  0  0  0  0  0  0  0  0
   -0.9426   -5.1960    6.0183 C   0  0  0  0  0  0  0  0  0  0  0  0
   -3.0078   -3.9722    5.7458 C   0  0  0  0  0  0  0  0  0  0  0  0
   -0.9529   -3.0935    4.8280 C   0  0  0  0  0  0  0  0  0  0  0  0
   -0.2611   -4.2023    5.3156 C   0  0  0  0  0  0  0  0  0  0  0  0
   -2.3263   -2.9785    5.0431 C   0  0  0  0  0  0  0  0  0  0  0  0
   -0.3124   -0.9378    0.4727 C   0  0  0  0  0  0  0  0  0  0  0  0
    0.0898   -3.3035    0.5317 C   0  0  0  0  0  0  0  0  0  0  0  0
   -0.0739   -0.8523    1.9823 C   0  0  0  0  0  0  0  0  0  0  0  0
    0.3304   -3.2322    2.0417 C   0  0  0  0  0  0  0  0  0  0  0  0
   -0.1859   -2.0442    4.0765 C   0  0  0  0  0  0  0  0  0  0  0  0
    0.4337   -2.0438   -0.1317 N   0  0  0  0  0  0  0  0  0  0  0  0
   -0.4223   -2.1203    2.6363 N   0  0  0  0  0  0  0  0  0  0  0  0
    1.0589   -4.3230    5.1154 F   0  0  0  0  0  0  0  0  0  0  0  0
   -3.2167   -1.6211    4.4563 Cl  0  0  0  0  0  0  0  0  0  0  0  0
   -2.8457   -5.8547    6.7810 H   0  0  0  0  0  0  0  0  0  0  0  0
   -0.4038   -6.0592    6.3979 H   0  0  0  0  0  0  0  0  0  0  0  0
   -4.0780   -3.8973    5.9218 H   0  0  0  0  0  0  0  0  0  0  0  0
   -1.3838   -1.0502    0.2628 H   0  0  0  0  0  0  0  0  0  0  0  0
    0.0080   -0.0003    0.0050 H   0  0  0  0  0  0  0  0  0  0  0  0
    0.7041   -4.1049    0.1068 H   0  0  0  0  0  0  0  0  0  0  0  0
   -0.9574   -3.5601    0.3264 H   0  0  0  0  0  0  0  0  0  0  0  0
    0.9747   -0.5879    2.1757 H   0  0  0  0  0  0  0  0  0  0  0  0
   -0.6951   -0.0438    2.3862 H   0  0  0  0  0  0  0  0  0  0  0  0
    0.0083   -4.1802    2.4889 H   0  0  0  0  0  0  0  0  0  0  0  0
    1.4059   -3.1257    2.2383 H   0  0  0  0  0  0  0  0  0  0  0  0
   -0.4722   -1.0417    4.4128 H   0  0  0  0  0  0  0  0  0  0  0  0
    0.8911   -2.1485    4.2450 H   0  0  0  0  0  0  0  0  0  0  0  0
    0.2061   -2.1072   -1.1233 H   0  0  0  0  0  0  0  0  0  0  0  0
  1  2  1  0  0  0  0
  1  3  2  0  0  0  0
  2  5  2  0  0  0  0
  3  6  1  0  0  0  0
  4  5  1  0  0  0  0
  4  6  2  0  0  0  0
  4 11  1  0  0  0  0
  5 14  1  0  0  0  0
  6 15  1  0  0  0  0
  7  9  1  0  0  0  0
  7 12  1  0  0  0  0
  8 10  1  0  0  0  0
  8 12  1  0  0  0  0
  9 13  1  0  0  0  0
 10 13  1  0  0  0  0
 11 13  1  0  0  0  0
  1 16  1  0  0  0  0
  2 17  1  0  0  0  0
  3 18  1  0  0  0  0
  7 19  1  0  0  0  0
  7 20  1  0  0  0  0
  8 21  1  0  0  0  0
  8 22  1  0  0  0  0
  9 23  1  0  0  0  0
  9 24  1  0  0  0  0
 10 25  1  0  0  0  0
 10 26  1  0  0  0  0
 11 27  1  0  0  0  0
 11 28  1  0  0  0  0
 12 29  1  0  0  0  0
M  END
$$$$
frag.vs.115
  -OEChem-01121112253D

 20 21  0     0  0  0  0  0  0999 V2000
   -0.7482    1.9583   -0.4586 C   0  0  0  0  0  0  0  0  0  0  0  0
   -0.8772    0.5936   -0.2428 C   0  0  0  0  0  0  0  0  0  0  0  0
   -1.8689    2.7321   -0.7717 C   0  0  0  0  0  0  0  0  0  0  0  0
   -2.1248   -0.0264   -0.3346 C   0  0  0  0  0  0  0  0  0  0  0  0
   -5.4435    1.7834   -1.1782 C   0  0  0  0  0  0  0  0  0  0  0  0
   -3.1479    2.1331   -0.8722 C   0  0  0  0  0  0  0  0  0  0  0  0
   -4.4271    2.7089   -1.1762 C   0  0  0  0  0  0  0  0  0  0  0  0
   -3.2525    0.7565   -0.6503 C   0  0  0  0  0  0  0  0  0  0  0  0
   -4.6437    4.1498   -1.4604 C   0  0  0  0  0  0  0  0  0  0  0  0
   -4.5979    4.9632   -0.2687 N   0  0  0  0  0  0  0  0  0  0  0  0
   -4.8813    0.2155   -0.8165 S   0  0  0  0  0  0  0  0  0  0  0  0
    0.2279    2.4294   -0.3849 H   0  0  0  0  0  0  0  0  0  0  0  0
   -0.0002    0.0001    0.0008 H   0  0  0  0  0  0  0  0  0  0  0  0
   -1.7476    3.7999   -0.9371 H   0  0  0  0  0  0  0  0  0  0  0  0
   -2.2157   -1.0952   -0.1642 H   0  0  0  0  0  0  0  0  0  0  0  0
   -6.4932    1.9528   -1.3752 H   0  0  0  0  0  0  0  0  0  0  0  0
   -3.8815    4.5432   -2.1516 H   0  0  0  0  0  0  0  0  0  0  0  0
   -5.6196    4.3313   -1.9372 H   0  0  0  0  0  0  0  0  0  0  0  0
   -5.0999    5.8337   -0.2550 H   0  0  0  0  0  0  0  0  0  0  0  0
   -3.9142    4.7525    0.4372 H   0  0  0  0  0  0  0  0  0  0  0  0
  1  2  1  0  0  0  0
  1  3  2  0  0  0  0
  2  4  2  0  0  0  0
  3  6  1  0  0  0  0
  4  8  1  0  0  0  0
  5  7  2  0  0  0  0
  5 11  1  0  0  0  0
  6  7  1  0  0  0  0
  6  8  2  0  0  0  0
  7  9  1  0  0  0  0
  8 11  1  0  0  0  0
  9 10  1  0  0  0  0
  1 12  1  0  0  0  0
  2 13  1  0  0  0  0
  3 14  1  0  0  0  0
  4 15  1  0  0  0  0
  5 16  1  0  0  0  0
  9 17  1  0  0  0  0
  9 18  1  0  0  0  0
 10 19  1  0  0  0  0
 10 20  1  0  0  0  0
M  END
$$$$
frag.vs.116
  -OEChem-01121112253D

 24 25  0     0  0  0  0  0  0999 V2000
    2.1522   -0.0282    0.1997 C   0  0  0  0  0  0  0  0  0  0  0  0
    0.8758    0.5547    0.3265 C   0  0  0  0  0  0  0  0  0  0  0  0
    3.2974    0.6594    0.6103 C   0  0  0  0  0  0  0  0  0  0  0  0
    0.7234    1.8351    0.8659 C   0  0  0  0  0  0  0  0  0  0  0  0
    3.1157    1.9204    1.1385 C   0  0  0  0  0  0  0  0  0  0  0  0
    1.8671    2.4945    1.2641 C   0  0  0  0  0  0  0  0  0  0  0  0
    3.2925    3.9578    2.0383 C   0  0  0  0  0  0  0  0  0  0  0  0
    7.3622    1.6487    2.9809 C   0  0  0  0  0  0  0  0  0  0  0  0
    5.8616    1.8132    2.8744 C   0  0  0  0  0  0  0  0  0  0  0  0
    5.4415    2.6874    1.7000 C   0  0  0  0  0  0  0  0  0  0  0  0
    4.0110    2.8466    1.6279 N   0  0  0  0  0  0  0  0  0  0  0  0
    3.7389    4.9878    2.5289 O   0  0  0  0  0  0  0  0  0  0  0  0
    8.1861    2.1142    2.2063 O   0  0  0  0  0  0  0  0  0  0  0  0
    1.9160    3.7647    1.8189 O   0  0  0  0  0  0  0  0  0  0  0  0
    7.7031    0.9103    4.0697 O   0  0  0  0  0  0  0  0  0  0  0  0
    2.2446   -1.0247   -0.2241 H   0  0  0  0  0  0  0  0  0  0  0  0
   -0.0000   -0.0005    0.0009 H   0  0  0  0  0  0  0  0  0  0  0  0
    4.2783    0.2094    0.5131 H   0  0  0  0  0  0  0  0  0  0  0  0
   -0.2572    2.2862    0.9633 H   0  0  0  0  0  0  0  0  0  0  0  0
    5.4092    0.8193    2.7820 H   0  0  0  0  0  0  0  0  0  0  0  0
    5.5155    2.2799    3.8034 H   0  0  0  0  0  0  0  0  0  0  0  0
    5.7766    2.2703    0.7452 H   0  0  0  0  0  0  0  0  0  0  0  0
    5.8683    3.6897    1.8059 H   0  0  0  0  0  0  0  0  0  0  0  0
    8.6672    0.7749    4.1927 H   0  0  0  0  0  0  0  0  0  0  0  0
  1  2  1  0  0  0  0
  1  3  2  0  0  0  0
  2  4  2  0  0  0  0
  3  5  1  0  0  0  0
  4  6  1  0  0  0  0
  5  6  2  0  0  0  0
  5 11  1  0  0  0  0
  6 14  1  0  0  0  0
  7 11  1  0  0  0  0
  7 12  2  0  0  0  0
  7 14  1  0  0  0  0
  8  9  1  0  0  0  0
  8 13  2  0  0  0  0
  8 15  1  0  0  0  0
  9 10  1  0  0  0  0
 10 11  1  0  0  0  0
  1 16  1  0  0  0  0
  2 17  1  0  0  0  0
  3 18  1  0  0  0  0
  4 19  1  0  0  0  0
  9 20  1  0  0  0  0
  9 21  1  0  0  0  0
 10 22  1  0  0  0  0
 10 23  1  0  0  0  0
 15 24  1  0  0  0  0
M  END
$$$$
frag.vs.117
  -OEChem-01121112253D

 22 23  0     0  0  0  0  0  0999 V2000
    5.8139    4.1710   -0.2556 C   0  0  0  0  0  0  0  0  0  0  0  0
    2.1522   -0.0282    0.1997 C   0  0  0  0  0  0  0  0  0  0  0  0
    0.8758    0.5547    0.3265 C   0  0  0  0  0  0  0  0  0  0  0  0
    3.2974    0.6594    0.6103 C   0  0  0  0  0  0  0  0  0  0  0  0
    0.7234    1.8351    0.8659 C   0  0  0  0  0  0  0  0  0  0  0  0
    3.1157    1.9204    1.1385 C   0  0  0  0  0  0  0  0  0  0  0  0
    1.8671    2.4945    1.2641 C   0  0  0  0  0  0  0  0  0  0  0  0
    3.2925    3.9578    2.0383 C   0  0  0  0  0  0  0  0  0  0  0  0
    6.0762    2.8446    0.3223 C   0  0  0  0  0  0  0  0  0  0  0  0
    5.4415    2.6874    1.7000 C   0  0  0  0  0  0  0  0  0  0  0  0
    5.6081    5.2172   -0.7135 N   0  0  0  0  0  0  0  0  0  0  0  0
    4.0110    2.8466    1.6279 N   0  0  0  0  0  0  0  0  0  0  0  0
    3.7389    4.9878    2.5289 O   0  0  0  0  0  0  0  0  0  0  0  0
    1.9160    3.7647    1.8189 O   0  0  0  0  0  0  0  0  0  0  0  0
    2.2446   -1.0247   -0.2241 H   0  0  0  0  0  0  0  0  0  0  0  0
   -0.0000   -0.0005    0.0009 H   0  0  0  0  0  0  0  0  0  0  0  0
    4.2783    0.2094    0.5131 H   0  0  0  0  0  0  0  0  0  0  0  0
   -0.2572    2.2862    0.9633 H   0  0  0  0  0  0  0  0  0  0  0  0
    7.1598    2.7053    0.4127 H   0  0  0  0  0  0  0  0  0  0  0  0
    5.7080    2.0670   -0.3572 H   0  0  0  0  0  0  0  0  0  0  0  0
    5.6604    1.6891    2.0926 H   0  0  0  0  0  0  0  0  0  0  0  0
    5.8526    3.4185    2.4051 H   0  0  0  0  0  0  0  0  0  0  0  0
  1  9  1  0  0  0  0
  1 11  3  0  0  0  0
  2  3  1  0  0  0  0
  2  4  2  0  0  0  0
  3  5  2  0  0  0  0
  4  6  1  0  0  0  0
  5  7  1  0  0  0  0
  6  7  2  0  0  0  0
  6 12  1  0  0  0  0
  7 14  1  0  0  0  0
  8 12  1  0  0  0  0
  8 13  2  0  0  0  0
  8 14  1  0  0  0  0
  9 10  1  0  0  0  0
 10 12  1  0  0  0  0
  2 15  1  0  0  0  0
  3 16  1  0  0  0  0
  4 17  1  0  0  0  0
  5 18  1  0  0  0  0
  9 19  1  0  0  0  0
  9 20  1  0  0  0  0
 10 21  1  0  0  0  0
 10 22  1  0  0  0  0
M  END
$$$$
frag.vs.118_0
  -OEChem-01121112263D

 31 31  0     1  0  0  0  0  0999 V2000
    0.4945    1.7445   -1.7205 C   0  0  0  0  0  0  0  0  0  0  0  0
   -0.7740   -1.0177    1.1549 C   0  0  0  0  0  0  0  0  0  0  0  0
    0.2705    0.0210    1.5706 C   0  0  0  0  0  0  0  0  0  0  0  0
   -0.4213   -0.4563   -1.1544 C   0  0  0  0  0  0  0  0  0  0  0  0
    0.6104    0.6092   -0.7481 C   0  0  2  0  0  0  0  0  0  0  0  0
    2.2491    2.1281   -4.9084 C   0  0  0  0  0  0  0  0  0  0  0  0
   -1.4452   -2.5596   -0.5714 C   0  0  0  0  0  0  0  0  0  0  0  0
    1.3806    2.0786    1.0407 C   0  0  0  0  0  0  0  0  0  0  0  0
    1.2982    2.5272   -3.8002 C   0  0  0  0  0  0  0  0  0  0  0  0
   -0.4658   -1.5489   -0.1766 N   0  0  2  0  0  0  0  0  0  0  0  0
    0.3505    1.1292    0.6048 N   0  0  2  0  0  0  0  0  0  0  0  0
   -0.2308    2.7162   -1.5560 O   0  0  0  0  0  0  0  0  0  0  0  0
    1.3110    1.5154   -2.7881 O   0  0  0  0  0  0  0  0  0  0  0  0
   -0.7627   -1.8308    1.8910 H   0  0  0  0  0  0  0  0  0  0  0  0
   -1.7762   -0.5686    1.1794 H   0  0  0  0  0  0  0  0  0  0  0  0
   -0.0107    0.4121    2.5562 H   0  0  0  0  0  0  0  0  0  0  0  0
    1.2479   -0.4686    1.6817 H   0  0  0  0  0  0  0  0  0  0  0  0
   -1.4156   -0.0010   -1.2713 H   0  0  0  0  0  0  0  0  0  0  0  0
   -0.1423   -0.8545   -2.1390 H   0  0  0  0  0  0  0  0  0  0  0  0
    1.6233    0.1922   -0.8218 H   0  0  0  0  0  0  0  0  0  0  0  0
    3.2698    2.0267   -4.5292 H   0  0  0  0  0  0  0  0  0  0  0  0
    1.9423    1.1772   -5.3565 H   0  0  0  0  0  0  0  0  0  0  0  0
    2.2426    2.8743   -5.7098 H   0  0  0  0  0  0  0  0  0  0  0  0
   -1.2050   -2.9477   -1.5646 H   0  0  0  0  0  0  0  0  0  0  0  0
   -2.4480   -2.1247   -0.5965 H   0  0  0  0  0  0  0  0  0  0  0  0
   -1.4406   -3.3890    0.1411 H   0  0  0  0  0  0  0  0  0  0  0  0
    1.4513    2.9079    0.3322 H   0  0  0  0  0  0  0  0  0  0  0  0
    2.3526    1.5813    1.0987 H   0  0  0  0  0  0  0  0  0  0  0  0
    1.1324    2.4788    2.0274 H   0  0  0  0  0  0  0  0  0  0  0  0
    0.2793    2.6269   -4.1861 H   0  0  0  0  0  0  0  0  0  0  0  0
    1.6067    3.4769   -3.3531 H   0  0  0  0  0  0  0  0  0  0  0  0
  1  5  1  0  0  0  0
  1 12  2  0  0  0  0
  1 13  1  0  0  0  0
  2  3  1  0  0  0  0
  2 10  1  0  0  0  0
  3 11  1  0  0  0  0
  4  5  1  0  0  0  0
  4 10  1  0  0  0  0
  5 11  1  0  0  0  0
  6  9  1  0  0  0  0
  7 10  1  0  0  0  0
  8 11  1  0  0  0  0
  9 13  1  0  0  0  0
  2 14  1  0  0  0  0
  2 15  1  0  0  0  0
  3 16  1  0  0  0  0
  3 17  1  0  0  0  0
  4 18  1  0  0  0  0
  4 19  1  0  0  0  0
  5 20  1  0  0  0  0
  6 21  1  0  0  0  0
  6 22  1  0  0  0  0
  6 23  1  0  0  0  0
  7 24  1  0  0  0  0
  7 25  1  0  0  0  0
  7 26  1  0  0  0  0
  8 27  1  0  0  0  0
  8 28  1  0  0  0  0
  8 29  1  0  0  0  0
  9 30  1  0  0  0  0
  9 31  1  0  0  0  0
M  END
$$$$
frag.vs.118_1
  -OEChem-01121112263D

 31 31  0     1  0  0  0  0  0999 V2000
   -1.1480    1.3707   -1.7467 C   0  0  0  0  0  0  0  0  0  0  0  0
    1.1400   -0.9399    0.8863 C   0  0  0  0  0  0  0  0  0  0  0  0
    0.7409    0.4693    1.3310 C   0  0  0  0  0  0  0  0  0  0  0  0
   -0.4412   -0.8241   -0.9190 C   0  0  0  0  0  0  0  0  0  0  0  0
   -0.8317    0.6026   -0.4986 C   0  0  1  0  0  0  0  0  0  0  0  0
   -4.3838    1.6328   -3.4349 C   0  0  0  0  0  0  0  0  0  0  0  0
    0.3765   -2.9657   -0.1722 C   0  0  0  0  0  0  0  0  0  0  0  0
   -0.1183    2.6124    0.6863 C   0  0  0  0  0  0  0  0  0  0  0  0
   -2.9081    1.9018   -3.2313 C   0  0  0  0  0  0  0  0  0  0  0  0
    0.0105   -1.6101    0.2343 N   0  0  1  0  0  0  0  0  0  0  0  0
    0.2714    1.2848    0.1988 N   0  0  1  0  0  0  0  0  0  0  0  0
   -0.3278    2.0278   -2.3733 O   0  0  0  0  0  0  0  0  0  0  0  0
   -2.4673    1.2166   -2.0548 O   0  0  0  0  0  0  0  0  0  0  0  0
    2.0089   -0.8867    0.2163 H   0  0  0  0  0  0  0  0  0  0  0  0
    1.4465   -1.5069    1.7738 H   0  0  0  0  0  0  0  0  0  0  0  0
   -0.0331    0.4013    2.1081 H   0  0  0  0  0  0  0  0  0  0  0  0
    1.6181    0.9444    1.7872 H   0  0  0  0  0  0  0  0  0  0  0  0
   -1.3172   -1.3062   -1.3727 H   0  0  0  0  0  0  0  0  0  0  0  0
    0.3369   -0.7946   -1.6957 H   0  0  0  0  0  0  0  0  0  0  0  0
   -1.7334    0.5715    0.1269 H   0  0  0  0  0  0  0  0  0  0  0  0
   -4.5714    0.5631   -3.5632 H   0  0  0  0  0  0  0  0  0  0  0  0
   -4.9636    1.9932   -2.5789 H   0  0  0  0  0  0  0  0  0  0  0  0
   -4.7549    2.1647   -4.3173 H   0  0  0  0  0  0  0  0  0  0  0  0
   -0.4727   -3.4548   -0.6566 H   0  0  0  0  0  0  0  0  0  0  0  0
    0.6715   -3.5552    0.7001 H   0  0  0  0  0  0  0  0  0  0  0  0
    1.2136   -2.9366   -0.8749 H   0  0  0  0  0  0  0  0  0  0  0  0
   -0.4694    3.2296   -0.1448 H   0  0  0  0  0  0  0  0  0  0  0  0
    0.7355    3.1080    1.1564 H   0  0  0  0  0  0  0  0  0  0  0  0
   -0.9214    2.5239    1.4228 H   0  0  0  0  0  0  0  0  0  0  0  0
   -2.7274    2.9733   -3.1037 H   0  0  0  0  0  0  0  0  0  0  0  0
   -2.3302    1.5404   -4.0871 H   0  0  0  0  0  0  0  0  0  0  0  0
  1  5  1  0  0  0  0
  1 12  2  0  0  0  0
  1 13  1  0  0  0  0
  2  3  1  0  0  0  0
  2 10  1  0  0  0  0
  3 11  1  0  0  0  0
  4  5  1  0  0  0  0
  4 10  1  0  0  0  0
  5 11  1  0  0  0  0
  6  9  1  0  0  0  0
  7 10  1  0  0  0  0
  8 11  1  0  0  0  0
  9 13  1  0  0  0  0
  2 14  1  0  0  0  0
  2 15  1  0  0  0  0
  3 16  1  0  0  0  0
  3 17  1  0  0  0  0
  4 18  1  0  0  0  0
  4 19  1  0  0  0  0
  5 20  1  0  0  0  0
  6 21  1  0  0  0  0
  6 22  1  0  0  0  0
  6 23  1  0  0  0  0
  7 24  1  0  0  0  0
  7 25  1  0  0  0  0
  7 26  1  0  0  0  0
  8 27  1  0  0  0  0
  8 28  1  0  0  0  0
  8 29  1  0  0  0  0
  9 30  1  0  0  0  0
  9 31  1  0  0  0  0
M  END
$$$$
frag.vs.119
  -OEChem-01121112263D

 18 18  0     0  0  0  0  0  0999 V2000
    1.9499   -0.7740   -0.8259 C   0  0  0  0  0  0  0  0  0  0  0  0
    1.3133   -2.8020   -0.9371 C   0  0  0  0  0  0  0  0  0  0  0  0
    0.6549   -0.7784   -0.3640 C   0  0  0  0  0  0  0  0  0  0  0  0
   -0.1414    0.3109    0.1012 C   0  0  0  0  0  0  0  0  0  0  0  0
   -1.0269   -2.6236   -0.0718 C   0  0  0  0  0  0  0  0  0  0  0  0
   -0.1637    2.6843    0.5058 C   0  0  0  0  0  0  0  0  0  0  0  0
    2.3537   -2.0366   -1.1813 N   0  0  0  0  0  0  0  0  0  0  0  0
    0.2603   -2.0844   -0.4416 N   0  0  0  0  0  0  0  0  0  0  0  0
   -1.3237    0.2253    0.5094 O   0  0  0  0  0  0  0  0  0  0  0  0
    0.5307    1.5137    0.0620 O   0  0  0  0  0  0  0  0  0  0  0  0
    2.6153    0.0722   -0.9226 H   0  0  0  0  0  0  0  0  0  0  0  0
    1.2643   -3.8704   -1.0975 H   0  0  0  0  0  0  0  0  0  0  0  0
   -0.9822   -2.9108    0.9821 H   0  0  0  0  0  0  0  0  0  0  0  0
   -1.7984   -1.8647   -0.2288 H   0  0  0  0  0  0  0  0  0  0  0  0
   -1.2475   -3.4932   -0.6971 H   0  0  0  0  0  0  0  0  0  0  0  0
    0.4922    3.5537    0.4167 H   0  0  0  0  0  0  0  0  0  0  0  0
   -0.4733    2.5531    1.5457 H   0  0  0  0  0  0  0  0  0  0  0  0
   -1.0474    2.8318   -0.1195 H   0  0  0  0  0  0  0  0  0  0  0  0
  1  3  2  0  0  0  0
  1  7  1  0  0  0  0
  2  7  2  0  0  0  0
  2  8  1  0  0  0  0
  3  4  1  0  0  0  0
  3  8  1  0  0  0  0
  4  9  2  0  0  0  0
  4 10  1  0  0  0  0
  5  8  1  0  0  0  0
  6 10  1  0  0  0  0
  1 11  1  0  0  0  0
  2 12  1  0  0  0  0
  5 13  1  0  0  0  0
  5 14  1  0  0  0  0
  5 15  1  0  0  0  0
  6 16  1  0  0  0  0
  6 17  1  0  0  0  0
  6 18  1  0  0  0  0
M  END
$$$$
frag.vs.120
  -OEChem-01121112263D

 21 21  0     0  0  0  0  0  0999 V2000
   -0.2303   -1.3824   -1.7538 C   0  0  0  0  0  0  0  0  0  0  0  0
    0.0707   -2.7221   -1.7863 C   0  0  0  0  0  0  0  0  0  0  0  0
    0.0890   -0.9817   -0.4426 C   0  0  0  0  0  0  0  0  0  0  0  0
   -0.0510   -3.6526   -2.8607 C   0  0  0  0  0  0  0  0  0  0  0  0
   -0.0400    0.3646    0.1400 C   0  0  0  0  0  0  0  0  0  0  0  0
    0.7728   -7.2507   -2.9123 C   0  0  0  0  0  0  0  0  0  0  0  0
    0.2817   -5.9484   -3.5078 C   0  0  0  0  0  0  0  0  0  0  0  0
    0.5568   -1.9856    0.3039 N   0  0  0  0  0  0  0  0  0  0  0  0
    0.5336   -3.0305   -0.5409 N   0  0  0  0  0  0  0  0  0  0  0  0
   -0.4745   -3.3857   -4.0105 O   0  0  0  0  0  0  0  0  0  0  0  0
    0.3553   -4.9230   -2.5115 O   0  0  0  0  0  0  0  0  0  0  0  0
   -0.6236   -0.7825   -2.5620 H   0  0  0  0  0  0  0  0  0  0  0  0
   -1.0329    0.5089    0.5996 H   0  0  0  0  0  0  0  0  0  0  0  0
    0.7182    0.5561    0.9202 H   0  0  0  0  0  0  0  0  0  0  0  0
    0.0957    1.1603   -0.6143 H   0  0  0  0  0  0  0  0  0  0  0  0
    1.8108   -7.1609   -2.5800 H   0  0  0  0  0  0  0  0  0  0  0  0
    0.1524   -7.5431   -2.0588 H   0  0  0  0  0  0  0  0  0  0  0  0
    0.7059   -8.0603   -3.6466 H   0  0  0  0  0  0  0  0  0  0  0  0
   -0.7568   -6.0450   -3.8381 H   0  0  0  0  0  0  0  0  0  0  0  0
    0.9032   -5.6573   -4.3599 H   0  0  0  0  0  0  0  0  0  0  0  0
    0.8501   -3.9293   -0.1985 H   0  0  0  0  0  0  0  0  0  0  0  0
  1  2  2  0  0  0  0
  1  3  1  0  0  0  0
  2  4  1  0  0  0  0
  2  9  1  0  0  0  0
  3  5  1  0  0  0  0
  3  8  2  0  0  0  0
  4 10  2  0  0  0  0
  4 11  1  0  0  0  0
  6  7  1  0  0  0  0
  7 11  1  0  0  0  0
  8  9  1  0  0  0  0
  1 12  1  0  0  0  0
  5 13  1  0  0  0  0
  5 14  1  0  0  0  0
  5 15  1  0  0  0  0
  6 16  1  0  0  0  0
  6 17  1  0  0  0  0
  6 18  1  0  0  0  0
  7 19  1  0  0  0  0
  7 20  1  0  0  0  0
  9 21  1  0  0  0  0
M  END
$$$$
frag.vs.121
  -OEChem-01121112263D

 14 14  0     0  0  0  0  0  0999 V2000
   -0.2303   -1.3824   -1.7538 C   0  0  0  0  0  0  0  0  0  0  0  0
    0.0890   -0.9817   -0.4426 C   0  0  0  0  0  0  0  0  0  0  0  0
    0.0707   -2.7221   -1.7863 C   0  0  0  0  0  0  0  0  0  0  0  0
    0.9834   -4.3214   -0.0709 C   0  0  0  0  0  0  0  0  0  0  0  0
    0.5568   -1.9856    0.3039 N   0  0  0  0  0  0  0  0  0  0  0  0
    0.5336   -3.0305   -0.5409 N   0  0  0  0  0  0  0  0  0  0  0  0
   -0.0194   -3.6479   -2.7631 N   0  0  0  0  0  0  0  0  0  0  0  0
   -0.6236   -0.7805   -2.5605 H   0  0  0  0  0  0  0  0  0  0  0  0
    0.0003    0.0000   -0.0002 H   0  0  0  0  0  0  0  0  0  0  0  0
    2.0567   -4.3958   -0.2650 H   0  0  0  0  0  0  0  0  0  0  0  0
    0.7817   -4.4094    1.0003 H   0  0  0  0  0  0  0  0  0  0  0  0
    0.4421   -5.1085   -0.6032 H   0  0  0  0  0  0  0  0  0  0  0  0
   -0.4113   -3.4301   -3.6920 H   0  0  0  0  0  0  0  0  0  0  0  0
    0.2103   -4.6404   -2.6021 H   0  0  0  0  0  0  0  0  0  0  0  0
  1  2  1  0  0  0  0
  1  3  2  0  0  0  0
  2  5  2  0  0  0  0
  3  6  1  0  0  0  0
  3  7  1  0  0  0  0
  4  6  1  0  0  0  0
  5  6  1  0  0  0  0
  1  8  1  0  0  0  0
  2  9  1  0  0  0  0
  4 10  1  0  0  0  0
  4 11  1  0  0  0  0
  4 12  1  0  0  0  0
  7 13  1  0  0  0  0
  7 14  1  0  0  0  0
M  END
$$$$
frag.vs.122
  -OEChem-01121112263D

 22 23  0     0  0  0  0  0  0999 V2000
    1.8851   -1.0363   -0.1124 C   0  0  0  0  0  0  0  0  0  0  0  0
    0.8066   -0.4630    0.5610 C   0  0  0  0  0  0  0  0  0  0  0  0
    2.9210   -1.6309    0.6081 C   0  0  0  0  0  0  0  0  0  0  0  0
    0.7638   -0.4841    1.9551 C   0  0  0  0  0  0  0  0  0  0  0  0
    2.8783   -1.6520    2.0022 C   0  0  0  0  0  0  0  0  0  0  0  0
    1.1622   -1.4500    6.1300 C   0  0  0  0  0  0  0  0  0  0  0  0
    2.3647   -0.7246    6.0312 C   0  0  0  0  0  0  0  0  0  0  0  0
    1.7997   -1.0786    2.6757 C   0  0  0  0  0  0  0  0  0  0  0  0
    0.7912   -1.6787    4.8275 C   0  0  0  0  0  0  0  0  0  0  0  0
   -0.3606   -2.3755    4.3451 C   0  0  0  0  0  0  0  0  0  0  0  0
    2.7332   -0.5071    4.7659 N   0  0  0  0  0  0  0  0  0  0  0  0
    1.7565   -1.0993    4.0577 N   0  0  0  0  0  0  0  0  0  0  0  0
   -0.4438   -3.0175    3.2763 O   0  0  0  0  0  0  0  0  0  0  0  0
   -1.4403   -2.2906    5.1855 O   0  0  0  0  0  0  0  0  0  0  0  0
    1.9181   -1.0217   -1.1978 H   0  0  0  0  0  0  0  0  0  0  0  0
   -0.0007   -0.0012    0.0001 H   0  0  0  0  0  0  0  0  0  0  0  0
    3.7599   -2.0784    0.0829 H   0  0  0  0  0  0  0  0  0  0  0  0
   -0.0831   -0.0344    2.4676 H   0  0  0  0  0  0  0  0  0  0  0  0
    3.6920   -2.1194    2.5515 H   0  0  0  0  0  0  0  0  0  0  0  0
    0.6413   -1.7610    7.0240 H   0  0  0  0  0  0  0  0  0  0  0  0
    2.9877   -0.3456    6.8285 H   0  0  0  0  0  0  0  0  0  0  0  0
   -2.2357   -2.7663    4.8638 H   0  0  0  0  0  0  0  0  0  0  0  0
  1  2  1  0  0  0  0
  1  3  2  0  0  0  0
  2  4  2  0  0  0  0
  3  5  1  0  0  0  0
  4  8  1  0  0  0  0
  5  8  2  0  0  0  0
  6  7  1  0  0  0  0
  6  9  2  0  0  0  0
  7 11  2  0  0  0  0
  8 12  1  0  0  0  0
  9 10  1  0  0  0  0
  9 12  1  0  0  0  0
 10 13  2  0  0  0  0
 10 14  1  0  0  0  0
 11 12  1  0  0  0  0
  1 15  1  0  0  0  0
  2 16  1  0  0  0  0
  3 17  1  0  0  0  0
  4 18  1  0  0  0  0
  5 19  1  0  0  0  0
  6 20  1  0  0  0  0
  7 21  1  0  0  0  0
 14 22  1  0  0  0  0
M  END
$$$$
frag.vs.123
  -OEChem-01121112263D

 18 19  0     0  0  0  0  0  0999 V2000
   -0.7339   -0.5961    0.5241 C   0  0  0  0  0  0  0  0  0  0  0  0
   -1.7595   -0.2712    1.3971 C   0  0  0  0  0  0  0  0  0  0  0  0
   -1.8385   -2.3622    1.2075 C   0  0  0  0  0  0  0  0  0  0  0  0
   -0.1352   -2.9478   -0.2476 C   0  0  0  0  0  0  0  0  0  0  0  0
   -0.6526   -4.1575    0.0262 C   0  0  0  0  0  0  0  0  0  0  0  0
    0.2067    0.2485   -0.1381 C   0  0  0  0  0  0  0  0  0  0  0  0
   -2.1542    1.0635    1.8799 C   0  0  0  0  0  0  0  0  0  0  0  0
   -2.4512   -1.3899    1.8238 N   0  0  0  0  0  0  0  0  0  0  0  0
   -0.8072   -1.9513    0.4192 N   0  0  0  0  0  0  0  0  0  0  0  0
    1.3734   -0.0568   -0.4720 O   0  0  0  0  0  0  0  0  0  0  0  0
   -0.2783    1.5033   -0.4071 O   0  0  0  0  0  0  0  0  0  0  0  0
   -2.0233   -4.0882    1.1484 S   0  0  0  0  0  0  0  0  0  0  0  0
    0.6980   -2.7292   -0.8981 H   0  0  0  0  0  0  0  0  0  0  0  0
   -0.2958   -5.0945   -0.3774 H   0  0  0  0  0  0  0  0  0  0  0  0
   -2.9072    1.5224    1.2167 H   0  0  0  0  0  0  0  0  0  0  0  0
   -2.5838    1.0285    2.8969 H   0  0  0  0  0  0  0  0  0  0  0  0
   -1.2958    1.7562    1.9383 H   0  0  0  0  0  0  0  0  0  0  0  0
    0.3607    2.0916   -0.8631 H   0  0  0  0  0  0  0  0  0  0  0  0
  1  2  2  0  0  0  0
  1  6  1  0  0  0  0
  1  9  1  0  0  0  0
  2  7  1  0  0  0  0
  2  8  1  0  0  0  0
  3  8  2  0  0  0  0
  3  9  1  0  0  0  0
  3 12  1  0  0  0  0
  4  5  2  0  0  0  0
  4  9  1  0  0  0  0
  5 12  1  0  0  0  0
  6 10  2  0  0  0  0
  6 11  1  0  0  0  0
  4 13  1  0  0  0  0
  5 14  1  0  0  0  0
  7 15  1  0  0  0  0
  7 16  1  0  0  0  0
  7 17  1  0  0  0  0
 11 18  1  0  0  0  0
M  END
$$$$
frag.vs.124
  -OEChem-01121112263D

 29 30  0     0  0  0  0  0  0999 V2000
   -0.5069   -0.0493   -6.3806 C   0  0  0  0  0  0  0  0  0  0  0  0
   -1.2936    0.3360   -5.3143 C   0  0  0  0  0  0  0  0  0  0  0  0
    0.5998   -0.8095   -6.0620 C   0  0  0  0  0  0  0  0  0  0  0  0
    0.0775   -0.7343   -3.8510 C   0  0  0  0  0  0  0  0  0  0  0  0
   -0.2755   -1.0510   -0.1589 C   0  0  0  0  0  0  0  0  0  0  0  0
    2.0438   -1.7010   -0.8211 C   0  0  0  0  0  0  0  0  0  0  0  0
   -0.7415   -1.2538   -1.5977 C   0  0  0  0  0  0  0  0  0  0  0  0
    1.5783   -1.8985   -2.2616 C   0  0  0  0  0  0  0  0  0  0  0  0
    0.9147   -1.9457    0.1735 C   0  0  0  0  0  0  0  0  0  0  0  0
    1.5105   -1.2730   -7.1488 C   0  0  0  0  0  0  0  0  0  0  0  0
   -1.0300    0.0101   -4.0319 N   0  0  0  0  0  0  0  0  0  0  0  0
    0.9234   -1.1716   -4.8033 N   0  0  0  0  0  0  0  0  0  0  0  0
    0.3823   -1.0917   -2.5318 N   0  0  0  0  0  0  0  0  0  0  0  0
    1.3860   -1.6538    1.4836 O   0  0  0  0  0  0  0  0  0  0  0  0
    1.1237   -0.8708   -8.3955 F   0  0  0  0  0  0  0  0  0  0  0  0
    2.7943   -0.8272   -7.0130 F   0  0  0  0  0  0  0  0  0  0  0  0
    1.5999   -2.6333   -7.2141 F   0  0  0  0  0  0  0  0  0  0  0  0
   -0.7506    0.2318   -7.3971 H   0  0  0  0  0  0  0  0  0  0  0  0
   -2.1847    0.9357   -5.4664 H   0  0  0  0  0  0  0  0  0  0  0  0
    0.0011    0.0002   -0.0013 H   0  0  0  0  0  0  0  0  0  0  0  0
   -1.0995   -1.2496    0.5368 H   0  0  0  0  0  0  0  0  0  0  0  0
    2.8868   -2.3678   -0.6040 H   0  0  0  0  0  0  0  0  0  0  0  0
    2.4303   -0.6811   -0.6914 H   0  0  0  0  0  0  0  0  0  0  0  0
   -1.1779   -2.2547   -1.7112 H   0  0  0  0  0  0  0  0  0  0  0  0
   -1.5279   -0.5216   -1.8197 H   0  0  0  0  0  0  0  0  0  0  0  0
    2.3929   -1.6101   -2.9377 H   0  0  0  0  0  0  0  0  0  0  0  0
    1.3597   -2.9594   -2.4395 H   0  0  0  0  0  0  0  0  0  0  0  0
    0.6135   -2.9997    0.1490 H   0  0  0  0  0  0  0  0  0  0  0  0
    0.6480   -1.8256    2.0902 H   0  0  0  0  0  0  0  0  0  0  0  0
  1  2  1  0  0  0  0
  1  3  2  0  0  0  0
  2 11  2  0  0  0  0
  3 10  1  0  0  0  0
  3 12  1  0  0  0  0
  4 11  1  0  0  0  0
  4 12  2  0  0  0  0
  4 13  1  0  0  0  0
  5  7  1  0  0  0  0
  5  9  1  0  0  0  0
  6  8  1  0  0  0  0
  6  9  1  0  0  0  0
  7 13  1  0  0  0  0
  8 13  1  0  0  0  0
  9 14  1  0  0  0  0
 10 15  1  0  0  0  0
 10 16  1  0  0  0  0
 10 17  1  0  0  0  0
  1 18  1  0  0  0  0
  2 19  1  0  0  0  0
  5 20  1  0  0  0  0
  5 21  1  0  0  0  0
  6 22  1  0  0  0  0
  6 23  1  0  0  0  0
  7 24  1  0  0  0  0
  7 25  1  0  0  0  0
  8 26  1  0  0  0  0
  8 27  1  0  0  0  0
  9 28  1  0  0  0  0
 14 29  1  0  0  0  0
M  END
$$$$
frag.vs.125
  -OEChem-01121112263D

 21 22  0     0  0  0  0  0  0999 V2000
    0.3861    0.7263    1.2430 C   0  0  0  0  0  0  0  0  0  0  0  0
    1.4182   -0.2355    1.3722 C   0  0  0  0  0  0  0  0  0  0  0  0
   -1.5779   -0.4083    4.9529 C   0  0  0  0  0  0  0  0  0  0  0  0
   -0.3323    0.7193    2.4182 C   0  0  0  0  0  0  0  0  0  0  0  0
    1.2990   -0.8012    2.6225 C   0  0  0  0  0  0  0  0  0  0  0  0
   -1.7538   -0.7678    6.2710 C   0  0  0  0  0  0  0  0  0  0  0  0
   -0.2172   -0.5192    4.5449 C   0  0  0  0  0  0  0  0  0  0  0  0
    0.5951   -0.9592    5.5669 C   0  0  0  0  0  0  0  0  0  0  0  0
    2.0556   -1.2052    5.5581 C   0  0  0  0  0  0  0  0  0  0  0  0
    0.2315   -0.2133    3.2493 N   0  0  0  0  0  0  0  0  0  0  0  0
    2.5927   -0.9692    6.8576 O   0  0  0  0  0  0  0  0  0  0  0  0
   -0.2824   -1.2367    7.0109 S   0  0  0  0  0  0  0  0  0  0  0  0
    0.1861    1.3540    0.3860 H   0  0  0  0  0  0  0  0  0  0  0  0
    2.1665   -0.4899    0.6349 H   0  0  0  0  0  0  0  0  0  0  0  0
   -2.3922   -0.0817    4.3177 H   0  0  0  0  0  0  0  0  0  0  0  0
   -1.1935    1.2992    2.7237 H   0  0  0  0  0  0  0  0  0  0  0  0
    1.8849   -1.5699    3.1099 H   0  0  0  0  0  0  0  0  0  0  0  0
   -2.6758   -0.7772    6.8351 H   0  0  0  0  0  0  0  0  0  0  0  0
    2.2962   -2.2418    5.2699 H   0  0  0  0  0  0  0  0  0  0  0  0
    2.5753   -0.5455    4.8441 H   0  0  0  0  0  0  0  0  0  0  0  0
    3.5447   -1.1431    6.7981 H   0  0  0  0  0  0  0  0  0  0  0  0
  1  2  1  0  0  0  0
  1  4  2  0  0  0  0
  2  5  2  0  0  0  0
  3  6  2  0  0  0  0
  3  7  1  0  0  0  0
  4 10  1  0  0  0  0
  5 10  1  0  0  0  0
  6 12  1  0  0  0  0
  7  8  2  0  0  0  0
  7 10  1  0  0  0  0
  8  9  1  0  0  0  0
  8 12  1  0  0  0  0
  9 11  1  0  0  0  0
  1 13  1  0  0  0  0
  2 14  1  0  0  0  0
  3 15  1  0  0  0  0
  4 16  1  0  0  0  0
  5 17  1  0  0  0  0
  6 18  1  0  0  0  0
  9 19  1  0  0  0  0
  9 20  1  0  0  0  0
 11 21  1  0  0  0  0
M  END
$$$$
frag.vs.126
  -OEChem-01121112263D

 24 25  0     0  0  0  0  0  0999 V2000
    6.0675   -0.3675    3.6005 C   0  0  0  0  0  0  0  0  0  0  0  0
    5.2235    0.5999    3.0942 C   0  0  0  0  0  0  0  0  0  0  0  0
    5.5928   -1.6620    3.5453 C   0  0  0  0  0  0  0  0  0  0  0  0
    3.6591   -0.9653    2.5746 C   0  0  0  0  0  0  0  0  0  0  0  0
    0.3579   -0.5623    0.8694 C   0  0  0  0  0  0  0  0  0  0  0  0
    0.4287   -2.7367    1.8755 C   0  0  0  0  0  0  0  0  0  0  0  0
    1.8758   -0.4170    0.9712 C   0  0  0  0  0  0  0  0  0  0  0  0
    1.9493   -2.6714    2.0161 C   0  0  0  0  0  0  0  0  0  0  0  0
    4.0080    0.3354    2.5718 N   0  0  0  0  0  0  0  0  0  0  0  0
    4.3889   -1.9981    3.0373 N   0  0  0  0  0  0  0  0  0  0  0  0
   -0.0354   -1.9632    0.7251 N   0  0  0  0  0  0  0  0  0  0  0  0
    2.4044   -1.2770    2.0387 N   0  0  0  0  0  0  0  0  0  0  0  0
    7.0372   -0.1275    4.0153 H   0  0  0  0  0  0  0  0  0  0  0  0
    5.5102    1.6462    3.0939 H   0  0  0  0  0  0  0  0  0  0  0  0
    6.1850   -2.4899    3.9203 H   0  0  0  0  0  0  0  0  0  0  0  0
   -0.1239   -0.1287    1.7548 H   0  0  0  0  0  0  0  0  0  0  0  0
   -0.0003    0.0018    0.0014 H   0  0  0  0  0  0  0  0  0  0  0  0
    0.1233   -3.7814    1.7517 H   0  0  0  0  0  0  0  0  0  0  0  0
   -0.0517   -2.3686    2.7908 H   0  0  0  0  0  0  0  0  0  0  0  0
    2.3417   -0.6862    0.0139 H   0  0  0  0  0  0  0  0  0  0  0  0
    2.1192    0.6328    1.1764 H   0  0  0  0  0  0  0  0  0  0  0  0
    2.2420   -3.1802    2.9430 H   0  0  0  0  0  0  0  0  0  0  0  0
    2.4240   -3.2030    1.1806 H   0  0  0  0  0  0  0  0  0  0  0  0
   -1.0517   -2.0228    0.6676 H   0  0  0  0  0  0  0  0  0  0  0  0
  1  2  1  0  0  0  0
  1  3  2  0  0  0  0
  2  9  2  0  0  0  0
  3 10  1  0  0  0  0
  4  9  1  0  0  0  0
  4 10  2  0  0  0  0
  4 12  1  0  0  0  0
  5  7  1  0  0  0  0
  5 11  1  0  0  0  0
  6  8  1  0  0  0  0
  6 11  1  0  0  0  0
  7 12  1  0  0  0  0
  8 12  1  0  0  0  0
  1 13  1  0  0  0  0
  2 14  1  0  0  0  0
  3 15  1  0  0  0  0
  5 16  1  0  0  0  0
  5 17  1  0  0  0  0
  6 18  1  0  0  0  0
  6 19  1  0  0  0  0
  7 20  1  0  0  0  0
  7 21  1  0  0  0  0
  8 22  1  0  0  0  0
  8 23  1  0  0  0  0
 11 24  1  0  0  0  0
M  END
$$$$
frag.vs.127
  -OEChem-01121112263D

 28 29  0     0  0  0  0  0  0999 V2000
    2.1679   -2.8612    3.3210 C   0  0  0  0  0  0  0  0  0  0  0  0
    1.0214   -2.8626    2.5342 C   0  0  0  0  0  0  0  0  0  0  0  0
    3.1143   -1.2519    1.8475 C   0  0  0  0  0  0  0  0  0  0  0  0
    3.2387   -2.0434    2.9780 C   0  0  0  0  0  0  0  0  0  0  0  0
    0.9962   -2.0343    1.4237 C   0  0  0  0  0  0  0  0  0  0  0  0
   -0.0357   -1.7704   -0.7946 C   0  0  0  0  0  0  0  0  0  0  0  0
   -1.4508   -1.6703    1.2385 C   0  0  0  0  0  0  0  0  0  0  0  0
   -1.2519   -2.3157   -1.5344 C   0  0  0  0  0  0  0  0  0  0  0  0
   -2.5918   -2.2206    0.3900 C   0  0  0  0  0  0  0  0  0  0  0  0
    4.4788   -2.0201    3.7991 C   0  0  0  0  0  0  0  0  0  0  0  0
    2.0167   -1.2262    1.0587 N   0  0  0  0  0  0  0  0  0  0  0  0
   -0.1641   -2.0466    0.6428 N   0  0  0  0  0  0  0  0  0  0  0  0
   -2.4550   -1.7983   -0.9664 O   0  0  0  0  0  0  0  0  0  0  0  0
    4.2419   -1.2918    4.9992 O   0  0  0  0  0  0  0  0  0  0  0  0
    2.2183   -3.4999    4.1986 H   0  0  0  0  0  0  0  0  0  0  0  0
    0.1811   -3.4981    2.7944 H   0  0  0  0  0  0  0  0  0  0  0  0
    3.9170   -0.5936    1.5299 H   0  0  0  0  0  0  0  0  0  0  0  0
    0.8741   -2.2297   -1.1987 H   0  0  0  0  0  0  0  0  0  0  0  0
    0.0295   -0.6852   -0.9462 H   0  0  0  0  0  0  0  0  0  0  0  0
   -1.5211   -0.5758    1.2807 H   0  0  0  0  0  0  0  0  0  0  0  0
   -1.5352   -2.0598    2.2599 H   0  0  0  0  0  0  0  0  0  0  0  0
   -1.2168   -2.0103   -2.5849 H   0  0  0  0  0  0  0  0  0  0  0  0
   -1.2781   -3.4119   -1.5091 H   0  0  0  0  0  0  0  0  0  0  0  0
   -2.6244   -3.3162    0.4282 H   0  0  0  0  0  0  0  0  0  0  0  0
   -3.5503   -1.8476    0.7648 H   0  0  0  0  0  0  0  0  0  0  0  0
    4.8060   -3.0356    4.0670 H   0  0  0  0  0  0  0  0  0  0  0  0
    5.3090   -1.5427    3.2578 H   0  0  0  0  0  0  0  0  0  0  0  0
    5.0730   -1.3031    5.4996 H   0  0  0  0  0  0  0  0  0  0  0  0
  1  2  1  0  0  0  0
  1  4  2  0  0  0  0
  2  5  2  0  0  0  0
  3  4  1  0  0  0  0
  3 11  2  0  0  0  0
  4 10  1  0  0  0  0
  5 11  1  0  0  0  0
  5 12  1  0  0  0  0
  6  8  1  0  0  0  0
  6 12  1  0  0  0  0
  7  9  1  0  0  0  0
  7 12  1  0  0  0  0
  8 13  1  0  0  0  0
  9 13  1  0  0  0  0
 10 14  1  0  0  0  0
  1 15  1  0  0  0  0
  2 16  1  0  0  0  0
  3 17  1  0  0  0  0
  6 18  1  0  0  0  0
  6 19  1  0  0  0  0
  7 20  1  0  0  0  0
  7 21  1  0  0  0  0
  8 22  1  0  0  0  0
  8 23  1  0  0  0  0
  9 24  1  0  0  0  0
  9 25  1  0  0  0  0
 10 26  1  0  0  0  0
 10 27  1  0  0  0  0
 14 28  1  0  0  0  0
M  END
$$$$
frag.vs.128
  -OEChem-01121112263D

 26 27  0     0  0  0  0  0  0999 V2000
    3.2594   -2.0085    2.9476 C   0  0  0  0  0  0  0  0  0  0  0  0
    3.3704   -2.0159    1.5616 C   0  0  0  0  0  0  0  0  0  0  0  0
    1.9871   -2.0146    3.4963 C   0  0  0  0  0  0  0  0  0  0  0  0
    2.2220   -2.0289    0.7778 C   0  0  0  0  0  0  0  0  0  0  0  0
    0.9962   -2.0343    1.4237 C   0  0  0  0  0  0  0  0  0  0  0  0
   -0.7487   -0.7573    0.2490 C   0  0  0  0  0  0  0  0  0  0  0  0
   -1.1193   -3.1528    0.7691 C   0  0  0  0  0  0  0  0  0  0  0  0
   -1.6486   -0.9498   -0.9663 C   0  0  0  0  0  0  0  0  0  0  0  0
   -2.0000   -3.2173   -0.4738 C   0  0  0  0  0  0  0  0  0  0  0  0
    0.8486   -2.0274    2.7675 N   0  0  0  0  0  0  0  0  0  0  0  0
   -0.1641   -2.0466    0.6428 N   0  0  0  0  0  0  0  0  0  0  0  0
    2.3322   -2.0365   -0.6252 N   0  0  0  0  0  0  0  0  0  0  0  0
   -2.6269   -1.9569   -0.7084 O   0  0  0  0  0  0  0  0  0  0  0  0
    4.1408   -1.9984    3.5785 H   0  0  0  0  0  0  0  0  0  0  0  0
    4.3563   -2.0114    1.1045 H   0  0  0  0  0  0  0  0  0  0  0  0
    1.8456   -2.0090    4.5721 H   0  0  0  0  0  0  0  0  0  0  0  0
    0.0372   -0.0311    0.0104 H   0  0  0  0  0  0  0  0  0  0  0  0
   -1.3406   -0.3624    1.0847 H   0  0  0  0  0  0  0  0  0  0  0  0
   -1.7468   -2.9866    1.6541 H   0  0  0  0  0  0  0  0  0  0  0  0
   -0.5946   -4.1073    0.8942 H   0  0  0  0  0  0  0  0  0  0  0  0
   -2.1762   -0.0173   -1.1906 H   0  0  0  0  0  0  0  0  0  0  0  0
   -1.0681   -1.2238   -1.8556 H   0  0  0  0  0  0  0  0  0  0  0  0
   -1.4198   -3.5051   -1.3589 H   0  0  0  0  0  0  0  0  0  0  0  0
   -2.7870   -3.9655   -0.3361 H   0  0  0  0  0  0  0  0  0  0  0  0
    3.2391   -1.9847   -1.0467 H   0  0  0  0  0  0  0  0  0  0  0  0
    1.5012   -1.9982   -1.1828 H   0  0  0  0  0  0  0  0  0  0  0  0
  1  2  1  0  0  0  0
  1  3  2  0  0  0  0
  2  4  2  0  0  0  0
  3 10  1  0  0  0  0
  4  5  1  0  0  0  0
  4 12  1  0  0  0  0
  5 10  2  0  0  0  0
  5 11  1  0  0  0  0
  6  8  1  0  0  0  0
  6 11  1  0  0  0  0
  7  9  1  0  0  0  0
  7 11  1  0  0  0  0
  8 13  1  0  0  0  0
  9 13  1  0  0  0  0
  1 14  1  0  0  0  0
  2 15  1  0  0  0  0
  3 16  1  0  0  0  0
  6 17  1  0  0  0  0
  6 18  1  0  0  0  0
  7 19  1  0  0  0  0
  7 20  1  0  0  0  0
  8 21  1  0  0  0  0
  8 22  1  0  0  0  0
  9 23  1  0  0  0  0
  9 24  1  0  0  0  0
 12 25  1  0  0  0  0
 12 26  1  0  0  0  0
M  END
$$$$
frag.vs.129
  -OEChem-01121112263D

 20 21  0     0  0  0  0  0  0999 V2000
   -1.1552    0.9923   -2.3038 C   0  0  0  0  0  0  0  0  0  0  0  0
   -1.8381    0.1933   -1.3418 C   0  0  0  0  0  0  0  0  0  0  0  0
   -0.1716    0.2851   -2.9594 C   0  0  0  0  0  0  0  0  0  0  0  0
   -2.9092   -3.5591    1.1417 C   0  0  0  0  0  0  0  0  0  0  0  0
   -1.3504   -1.0945   -1.2990 C   0  0  0  0  0  0  0  0  0  0  0  0
   -1.8981   -4.1577    0.4196 C   0  0  0  0  0  0  0  0  0  0  0  0
   -1.7934   -2.1538   -0.4653 C   0  0  0  0  0  0  0  0  0  0  0  0
   -1.4577   -5.5606    0.5524 C   0  0  0  0  0  0  0  0  0  0  0  0
   -1.2574   -3.3535   -0.5027 N   0  0  0  0  0  0  0  0  0  0  0  0
   -1.9120   -6.3986   -0.5359 N   0  0  0  0  0  0  0  0  0  0  0  0
   -0.0744   -1.3356   -2.4151 S   0  0  0  0  0  0  0  0  0  0  0  0
   -3.0718   -1.9224    0.6559 S   0  0  0  0  0  0  0  0  0  0  0  0
   -1.3747    2.0327   -2.5054 H   0  0  0  0  0  0  0  0  0  0  0  0
   -2.6467    0.5536   -0.7178 H   0  0  0  0  0  0  0  0  0  0  0  0
    0.4946    0.6425   -3.7317 H   0  0  0  0  0  0  0  0  0  0  0  0
   -3.5404   -3.9870    1.9074 H   0  0  0  0  0  0  0  0  0  0  0  0
   -0.3568   -5.6449    0.5814 H   0  0  0  0  0  0  0  0  0  0  0  0
   -1.8233   -6.0270    1.4843 H   0  0  0  0  0  0  0  0  0  0  0  0
   -2.0325   -7.3810   -0.3707 H   0  0  0  0  0  0  0  0  0  0  0  0
   -1.9000   -6.0275   -1.4681 H   0  0  0  0  0  0  0  0  0  0  0  0
  1  2  1  0  0  0  0
  1  3  2  0  0  0  0
  2  5  2  0  0  0  0
  3 11  1  0  0  0  0
  4  6  2  0  0  0  0
  4 12  1  0  0  0  0
  5  7  1  0  0  0  0
  5 11  1  0  0  0  0
  6  8  1  0  0  0  0
  6  9  1  0  0  0  0
  7  9  2  0  0  0  0
  7 12  1  0  0  0  0
  8 10  1  0  0  0  0
  1 13  1  0  0  0  0
  2 14  1  0  0  0  0
  3 15  1  0  0  0  0
  4 16  1  0  0  0  0
  8 17  1  0  0  0  0
  8 18  1  0  0  0  0
 10 19  1  0  0  0  0
 10 20  1  0  0  0  0
M  END
$$$$
frag.vs.130
  -OEChem-01121112263D

 24 25  0     0  0  0  0  0  0999 V2000
    1.8851   -1.0363   -0.1124 C   0  0  0  0  0  0  0  0  0  0  0  0
    0.8066   -0.4630    0.5610 C   0  0  0  0  0  0  0  0  0  0  0  0
    2.9210   -1.6309    0.6081 C   0  0  0  0  0  0  0  0  0  0  0  0
    1.7997   -1.0786    2.6757 C   0  0  0  0  0  0  0  0  0  0  0  0
    0.7638   -0.4841    1.9551 C   0  0  0  0  0  0  0  0  0  0  0  0
    2.8783   -1.6520    2.0022 C   0  0  0  0  0  0  0  0  0  0  0  0
   -0.3466    0.1068    2.6475 C   0  0  0  0  0  0  0  0  0  0  0  0
   -1.5596    0.7263    4.2045 C   0  0  0  0  0  0  0  0  0  0  0  0
   -2.2350    1.0583    5.4660 C   0  0  0  0  0  0  0  0  0  0  0  0
    3.9855   -2.2890    2.7717 C   0  0  0  0  0  0  0  0  0  0  0  0
   -0.4235    0.1056    4.0098 N   0  0  0  0  0  0  0  0  0  0  0  0
   -1.3651    0.6899    2.0085 N   0  0  0  0  0  0  0  0  0  0  0  0
   -2.1872    1.1096    3.0619 O   0  0  0  0  0  0  0  0  0  0  0  0
    4.8038   -1.2778    3.3471 O   0  0  0  0  0  0  0  0  0  0  0  0
    1.9181   -1.0209   -1.1981 H   0  0  0  0  0  0  0  0  0  0  0  0
    0.0076   -0.0028   -0.0153 H   0  0  0  0  0  0  0  0  0  0  0  0
    3.7572   -2.0749    0.0744 H   0  0  0  0  0  0  0  0  0  0  0  0
    1.7732   -1.0987    3.7632 H   0  0  0  0  0  0  0  0  0  0  0  0
   -1.9243    2.0497    5.8423 H   0  0  0  0  0  0  0  0  0  0  0  0
   -3.3360    1.0761    5.3620 H   0  0  0  0  0  0  0  0  0  0  0  0
   -2.0224    0.3220    6.2637 H   0  0  0  0  0  0  0  0  0  0  0  0
    3.5982   -2.9275    3.5775 H   0  0  0  0  0  0  0  0  0  0  0  0
    4.6082   -2.9200    2.1227 H   0  0  0  0  0  0  0  0  0  0  0  0
    5.5077   -1.7332    3.8360 H   0  0  0  0  0  0  0  0  0  0  0  0
  1  2  2  0  0  0  0
  1  3  1  0  0  0  0
  2  5  1  0  0  0  0
  3  6  2  0  0  0  0
  4  5  2  0  0  0  0
  4  6  1  0  0  0  0
  5  7  1  0  0  0  0
  6 10  1  0  0  0  0
  7 11  1  0  0  0  0
  7 12  2  0  0  0  0
  8  9  1  0  0  0  0
  8 11  2  0  0  0  0
  8 13  1  0  0  0  0
 10 14  1  0  0  0  0
 12 13  1  0  0  0  0
  1 15  1  0  0  0  0
  2 16  1  0  0  0  0
  3 17  1  0  0  0  0
  4 18  1  0  0  0  0
  9 19  1  0  0  0  0
  9 20  1  0  0  0  0
  9 21  1  0  0  0  0
 10 22  1  0  0  0  0
 10 23  1  0  0  0  0
 14 24  1  0  0  0  0
M  END
$$$$
frag.vs.131
  -OEChem-01121112263D

 20 20  0     0  0  0  0  0  0999 V2000
    1.9204    3.0668   -4.3911 C   0  0  0  0  0  0  0  0  0  0  0  0
    1.9508    1.7481   -3.9882 C   0  0  0  0  0  0  0  0  0  0  0  0
    1.0333    1.4692   -5.9606 C   0  0  0  0  0  0  0  0  0  0  0  0
    2.4870    1.2967   -2.6793 C   0  0  0  0  0  0  0  0  0  0  0  0
    0.4296    0.8171   -7.1430 C   0  0  0  0  0  0  0  0  0  0  0  0
    2.6799   -2.1119   -1.3734 C   0  0  0  0  0  0  0  0  0  0  0  0
    2.8679   -0.6102   -1.3397 C   0  0  0  0  0  0  0  0  0  0  0  0
    1.4421    0.8307   -4.8867 N   0  0  0  0  0  0  0  0  0  0  0  0
    2.9487    2.0600   -1.8454 O   0  0  0  0  0  0  0  0  0  0  0  0
    2.3868   -0.0565   -2.5552 O   0  0  0  0  0  0  0  0  0  0  0  0
    1.2308    3.1739   -5.9577 S   0  0  0  0  0  0  0  0  0  0  0  0
    2.2585    3.9468   -3.8622 H   0  0  0  0  0  0  0  0  0  0  0  0
   -0.6647    0.7491   -7.0399 H   0  0  0  0  0  0  0  0  0  0  0  0
    0.6476    1.3684   -8.0722 H   0  0  0  0  0  0  0  0  0  0  0  0
    0.8188   -0.2033   -7.2927 H   0  0  0  0  0  0  0  0  0  0  0  0
    1.6228   -2.3705   -1.4803 H   0  0  0  0  0  0  0  0  0  0  0  0
    3.2376   -2.5522   -2.2065 H   0  0  0  0  0  0  0  0  0  0  0  0
    3.0644   -2.5695   -0.4558 H   0  0  0  0  0  0  0  0  0  0  0  0
    3.9272   -0.3583   -1.2326 H   0  0  0  0  0  0  0  0  0  0  0  0
    2.3094   -0.1718   -0.5073 H   0  0  0  0  0  0  0  0  0  0  0  0
  1  2  2  0  0  0  0
  1 11  1  0  0  0  0
  2  4  1  0  0  0  0
  2  8  1  0  0  0  0
  3  5  1  0  0  0  0
  3  8  2  0  0  0  0
  3 11  1  0  0  0  0
  4  9  2  0  0  0  0
  4 10  1  0  0  0  0
  6  7  1  0  0  0  0
  7 10  1  0  0  0  0
  1 12  1  0  0  0  0
  5 13  1  0  0  0  0
  5 14  1  0  0  0  0
  5 15  1  0  0  0  0
  6 16  1  0  0  0  0
  6 17  1  0  0  0  0
  6 18  1  0  0  0  0
  7 19  1  0  0  0  0
  7 20  1  0  0  0  0
M  END
$$$$
frag.vs.132
  -OEChem-01121112263D

 22 23  0     0  0  0  0  0  0999 V2000
   -0.2528    0.8087   -2.0577 C   0  0  0  0  0  0  0  0  0  0  0  0
   -0.4682   -0.0882   -0.9718 C   0  0  0  0  0  0  0  0  0  0  0  0
   -0.1952    2.3257   -4.6398 C   0  0  0  0  0  0  0  0  0  0  0  0
   -0.9584    1.1926   -4.4509 C   0  0  0  0  0  0  0  0  0  0  0  0
   -0.9783    0.4538   -3.1737 C   0  0  0  0  0  0  0  0  0  0  0  0
   -1.3504   -1.0945   -1.2990 C   0  0  0  0  0  0  0  0  0  0  0  0
   -1.5062    1.6160   -6.5319 C   0  0  0  0  0  0  0  0  0  0  0  0
   -2.1431    1.5009   -7.8620 C   0  0  0  0  0  0  0  0  0  0  0  0
   -1.8286   -2.2100   -0.4540 C   0  0  0  0  0  0  0  0  0  0  0  0
   -1.7112    0.7843   -5.5346 N   0  0  0  0  0  0  0  0  0  0  0  0
   -3.1668   -1.9575   -0.0292 O   0  0  0  0  0  0  0  0  0  0  0  0
   -0.4199    2.9111   -6.2361 S   0  0  0  0  0  0  0  0  0  0  0  0
   -1.9146   -0.9556   -2.9098 S   0  0  0  0  0  0  0  0  0  0  0  0
    0.4038    1.6689   -2.0117 H   0  0  0  0  0  0  0  0  0  0  0  0
    0.0016    0.0032   -0.0007 H   0  0  0  0  0  0  0  0  0  0  0  0
    0.4648    2.8272   -3.9454 H   0  0  0  0  0  0  0  0  0  0  0  0
   -3.0958    2.0524   -7.8919 H   0  0  0  0  0  0  0  0  0  0  0  0
   -1.4976    1.8982   -8.6622 H   0  0  0  0  0  0  0  0  0  0  0  0
   -2.3516    0.4516   -8.1280 H   0  0  0  0  0  0  0  0  0  0  0  0
   -1.8169   -3.1720   -0.9940 H   0  0  0  0  0  0  0  0  0  0  0  0
   -1.2014   -2.3413    0.4439 H   0  0  0  0  0  0  0  0  0  0  0  0
   -3.4291   -2.7139    0.5173 H   0  0  0  0  0  0  0  0  0  0  0  0
  1  2  1  0  0  0  0
  1  5  2  0  0  0  0
  2  6  2  0  0  0  0
  3  4  2  0  0  0  0
  3 12  1  0  0  0  0
  4  5  1  0  0  0  0
  4 10  1  0  0  0  0
  5 13  1  0  0  0  0
  6  9  1  0  0  0  0
  6 13  1  0  0  0  0
  7  8  1  0  0  0  0
  7 10  2  0  0  0  0
  7 12  1  0  0  0  0
  9 11  1  0  0  0  0
  1 14  1  0  0  0  0
  2 15  1  0  0  0  0
  3 16  1  0  0  0  0
  8 17  1  0  0  0  0
  8 18  1  0  0  0  0
  8 19  1  0  0  0  0
  9 20  1  0  0  0  0
  9 21  1  0  0  0  0
 11 22  1  0  0  0  0
M  END
$$$$
frag.vs.133
  -OEChem-01121112263D

 19 19  0     0  0  0  0  0  0999 V2000
    2.7050    1.8253   -5.1402 C   0  0  0  0  0  0  0  0  0  0  0  0
    1.9508    1.7481   -3.9882 C   0  0  0  0  0  0  0  0  0  0  0  0
    0.3947    2.4731   -5.3531 C   0  0  0  0  0  0  0  0  0  0  0  0
    2.4870    1.2967   -2.6793 C   0  0  0  0  0  0  0  0  0  0  0  0
    0.7174    1.0050    0.5057 C   0  0  0  0  0  0  0  0  0  0  0  0
    1.9102    0.9130   -0.4219 C   0  0  0  0  0  0  0  0  0  0  0  0
    0.6258    2.1195   -4.1083 N   0  0  0  0  0  0  0  0  0  0  0  0
   -0.8111    2.8957   -5.8177 N   0  0  0  0  0  0  0  0  0  0  0  0
    3.6474    0.9542   -2.5130 O   0  0  0  0  0  0  0  0  0  0  0  0
    1.5170    1.3236   -1.7228 O   0  0  0  0  0  0  0  0  0  0  0  0
    1.7254    2.3826   -6.4330 S   0  0  0  0  0  0  0  0  0  0  0  0
    3.7494    1.5870   -5.2867 H   0  0  0  0  0  0  0  0  0  0  0  0
    0.3448    2.0316    0.5616 H   0  0  0  0  0  0  0  0  0  0  0  0
   -0.0918    0.3535    0.1598 H   0  0  0  0  0  0  0  0  0  0  0  0
    0.9859    0.6713    1.5136 H   0  0  0  0  0  0  0  0  0  0  0  0
    2.2779   -0.1162   -0.4733 H   0  0  0  0  0  0  0  0  0  0  0  0
    2.7174    1.5651   -0.0754 H   0  0  0  0  0  0  0  0  0  0  0  0
   -1.6418    2.9192   -5.2165 H   0  0  0  0  0  0  0  0  0  0  0  0
   -0.9590    3.1172   -6.8082 H   0  0  0  0  0  0  0  0  0  0  0  0
  1  2  2  0  0  0  0
  1 11  1  0  0  0  0
  2  4  1  0  0  0  0
  2  7  1  0  0  0  0
  3  7  2  0  0  0  0
  3  8  1  0  0  0  0
  3 11  1  0  0  0  0
  4  9  2  0  0  0  0
  4 10  1  0  0  0  0
  5  6  1  0  0  0  0
  6 10  1  0  0  0  0
  1 12  1  0  0  0  0
  5 13  1  0  0  0  0
  5 14  1  0  0  0  0
  5 15  1  0  0  0  0
  6 16  1  0  0  0  0
  6 17  1  0  0  0  0
  8 18  1  0  0  0  0
  8 19  1  0  0  0  0
M  END
$$$$
frag.vs.134
  -OEChem-01121112263D

 27 28  0     0  0  0  0  0  0999 V2000
    3.0324   -3.0973    2.0402 C   0  0  0  0  0  0  0  0  0  0  0  0
    1.8736   -3.0959    1.2719 C   0  0  0  0  0  0  0  0  0  0  0  0
    2.3351   -1.0368    3.0018 C   0  0  0  0  0  0  0  0  0  0  0  0
    3.2751   -2.0518    2.9241 C   0  0  0  0  0  0  0  0  0  0  0  0
    0.9962   -2.0343    1.4237 C   0  0  0  0  0  0  0  0  0  0  0  0
    4.4755   -2.0261    3.7413 C   0  0  0  0  0  0  0  0  0  0  0  0
   -0.7487   -0.7573    0.2490 C   0  0  0  0  0  0  0  0  0  0  0  0
   -1.1193   -3.1528    0.7691 C   0  0  0  0  0  0  0  0  0  0  0  0
   -1.6486   -0.9498   -0.9663 C   0  0  0  0  0  0  0  0  0  0  0  0
   -2.0000   -3.2173   -0.4738 C   0  0  0  0  0  0  0  0  0  0  0  0
    1.1978   -1.0010    2.2718 N   0  0  0  0  0  0  0  0  0  0  0  0
   -0.1641   -2.0466    0.6428 N   0  0  0  0  0  0  0  0  0  0  0  0
    5.3640   -2.8861    3.7391 O   0  0  0  0  0  0  0  0  0  0  0  0
   -2.6269   -1.9569   -0.7084 O   0  0  0  0  0  0  0  0  0  0  0  0
    4.5391   -0.9260    4.5419 O   0  0  0  0  0  0  0  0  0  0  0  0
    3.7396   -3.9163    1.9414 H   0  0  0  0  0  0  0  0  0  0  0  0
    1.6758   -3.9081    0.5797 H   0  0  0  0  0  0  0  0  0  0  0  0
    2.4687   -0.1935    3.6728 H   0  0  0  0  0  0  0  0  0  0  0  0
    0.0372   -0.0311    0.0104 H   0  0  0  0  0  0  0  0  0  0  0  0
   -1.3406   -0.3624    1.0847 H   0  0  0  0  0  0  0  0  0  0  0  0
   -1.7468   -2.9866    1.6541 H   0  0  0  0  0  0  0  0  0  0  0  0
   -0.5946   -4.1073    0.8942 H   0  0  0  0  0  0  0  0  0  0  0  0
   -2.1762   -0.0173   -1.1906 H   0  0  0  0  0  0  0  0  0  0  0  0
   -1.0681   -1.2238   -1.8556 H   0  0  0  0  0  0  0  0  0  0  0  0
   -1.4198   -3.5051   -1.3589 H   0  0  0  0  0  0  0  0  0  0  0  0
   -2.7870   -3.9655   -0.3361 H   0  0  0  0  0  0  0  0  0  0  0  0
    5.3472   -0.8989    5.0975 H   0  0  0  0  0  0  0  0  0  0  0  0
  1  2  1  0  0  0  0
  1  4  2  0  0  0  0
  2  5  2  0  0  0  0
  3  4  1  0  0  0  0
  3 11  2  0  0  0  0
  4  6  1  0  0  0  0
  5 11  1  0  0  0  0
  5 12  1  0  0  0  0
  6 13  2  0  0  0  0
  6 15  1  0  0  0  0
  7  9  1  0  0  0  0
  7 12  1  0  0  0  0
  8 10  1  0  0  0  0
  8 12  1  0  0  0  0
  9 14  1  0  0  0  0
 10 14  1  0  0  0  0
  1 16  1  0  0  0  0
  2 17  1  0  0  0  0
  3 18  1  0  0  0  0
  7 19  1  0  0  0  0
  7 20  1  0  0  0  0
  8 21  1  0  0  0  0
  8 22  1  0  0  0  0
  9 23  1  0  0  0  0
  9 24  1  0  0  0  0
 10 25  1  0  0  0  0
 10 26  1  0  0  0  0
 15 27  1  0  0  0  0
M  END
$$$$
frag.vs.135
  -OEChem-01121112263D

 30 31  0     0  0  0  0  0  0999 V2000
    2.1714   -2.8673    3.3161 C   0  0  0  0  0  0  0  0  0  0  0  0
    1.0240   -2.8671    2.5307 C   0  0  0  0  0  0  0  0  0  0  0  0
    3.1136   -1.2505    1.8482 C   0  0  0  0  0  0  0  0  0  0  0  0
    3.2406   -2.0464    2.9753 C   0  0  0  0  0  0  0  0  0  0  0  0
    0.9962   -2.0343    1.4237 C   0  0  0  0  0  0  0  0  0  0  0  0
    4.4514   -2.0233    3.7770 C   0  0  0  0  0  0  0  0  0  0  0  0
   -0.0365   -1.7639   -0.7934 C   0  0  0  0  0  0  0  0  0  0  0  0
   -1.4519   -1.6765    1.2402 C   0  0  0  0  0  0  0  0  0  0  0  0
   -1.2513   -2.3096   -1.5354 C   0  0  0  0  0  0  0  0  0  0  0  0
   -2.5913   -2.2264    0.3894 C   0  0  0  0  0  0  0  0  0  0  0  0
    6.6183   -1.0406    3.9736 C   0  0  0  0  0  0  0  0  0  0  0  0
    2.0151   -1.2232    1.0609 N   0  0  0  0  0  0  0  0  0  0  0  0
   -0.1641   -2.0466    0.6428 N   0  0  0  0  0  0  0  0  0  0  0  0
    4.6323   -2.7056    4.7956 O   0  0  0  0  0  0  0  0  0  0  0  0
   -2.4557   -1.7981   -0.9652 O   0  0  0  0  0  0  0  0  0  0  0  0
    5.3770   -1.1519    3.2690 O   0  0  0  0  0  0  0  0  0  0  0  0
    2.2222   -3.5113    4.1898 H   0  0  0  0  0  0  0  0  0  0  0  0
    0.1845   -3.5044    2.7895 H   0  0  0  0  0  0  0  0  0  0  0  0
    3.9142   -0.5890    1.5309 H   0  0  0  0  0  0  0  0  0  0  0  0
    0.8745   -2.2189   -1.1995 H   0  0  0  0  0  0  0  0  0  0  0  0
    0.0256   -0.6780   -0.9405 H   0  0  0  0  0  0  0  0  0  0  0  0
   -1.5252   -0.5824    1.2870 H   0  0  0  0  0  0  0  0  0  0  0  0
   -1.5351   -2.0705    2.2599 H   0  0  0  0  0  0  0  0  0  0  0  0
   -1.2171   -1.9996   -2.5847 H   0  0  0  0  0  0  0  0  0  0  0  0
   -1.2743   -3.4059   -1.5148 H   0  0  0  0  0  0  0  0  0  0  0  0
   -2.6207   -3.3223    0.4229 H   0  0  0  0  0  0  0  0  0  0  0  0
   -3.5508   -1.8577    0.7658 H   0  0  0  0  0  0  0  0  0  0  0  0
    7.2621   -0.3175    3.4669 H   0  0  0  0  0  0  0  0  0  0  0  0
    7.1070   -2.0175    4.0093 H   0  0  0  0  0  0  0  0  0  0  0  0
    6.4196   -0.6974    4.9917 H   0  0  0  0  0  0  0  0  0  0  0  0
  1  2  2  0  0  0  0
  1  4  1  0  0  0  0
  2  5  1  0  0  0  0
  3  4  2  0  0  0  0
  3 12  1  0  0  0  0
  4  6  1  0  0  0  0
  5 12  2  0  0  0  0
  5 13  1  0  0  0  0
  6 14  2  0  0  0  0
  6 16  1  0  0  0  0
  7  9  1  0  0  0  0
  7 13  1  0  0  0  0
  8 10  1  0  0  0  0
  8 13  1  0  0  0  0
  9 15  1  0  0  0  0
 10 15  1  0  0  0  0
 11 16  1  0  0  0  0
  1 17  1  0  0  0  0
  2 18  1  0  0  0  0
  3 19  1  0  0  0  0
  7 20  1  0  0  0  0
  7 21  1  0  0  0  0
  8 22  1  0  0  0  0
  8 23  1  0  0  0  0
  9 24  1  0  0  0  0
  9 25  1  0  0  0  0
 10 26  1  0  0  0  0
 10 27  1  0  0  0  0
 11 28  1  0  0  0  0
 11 29  1  0  0  0  0
 11 30  1  0  0  0  0
M  END
$$$$
frag.vs.136
  -OEChem-01121112263D

 17 17  0     0  0  0  0  0  0999 V2000
    0.2265   -0.4197    0.9733 C   0  0  0  0  0  0  0  0  0  0  0  0
    1.3879   -0.0684    1.6522 C   0  0  0  0  0  0  0  0  0  0  0  0
   -0.6317   -1.3224    1.5803 C   0  0  0  0  0  0  0  0  0  0  0  0
    1.6520   -0.6227    2.8997 C   0  0  0  0  0  0  0  0  0  0  0  0
    0.7299   -1.5161    3.4206 C   0  0  0  0  0  0  0  0  0  0  0  0
   -0.0357   -2.9941    5.1192 C   0  0  0  0  0  0  0  0  0  0  0  0
   -0.4092   -1.8816    2.7908 N   0  0  0  0  0  0  0  0  0  0  0  0
    2.8224   -0.2755    3.5979 N   0  0  0  0  0  0  0  0  0  0  0  0
    0.9526   -2.0867    4.6473 O   0  0  0  0  0  0  0  0  0  0  0  0
    0.0007   -0.0008   -0.0005 H   0  0  0  0  0  0  0  0  0  0  0  0
    2.0799    0.6371    1.2001 H   0  0  0  0  0  0  0  0  0  0  0  0
   -1.5495   -1.6313    1.0908 H   0  0  0  0  0  0  0  0  0  0  0  0
    0.2580   -3.3762    6.1000 H   0  0  0  0  0  0  0  0  0  0  0  0
   -0.1413   -3.8199    4.4112 H   0  0  0  0  0  0  0  0  0  0  0  0
   -0.9891   -2.4675    5.2065 H   0  0  0  0  0  0  0  0  0  0  0  0
    3.4876    0.3384    3.1684 H   0  0  0  0  0  0  0  0  0  0  0  0
    3.0220   -0.7186    4.4741 H   0  0  0  0  0  0  0  0  0  0  0  0
  1  2  1  0  0  0  0
  1  3  2  0  0  0  0
  2  4  2  0  0  0  0
  3  7  1  0  0  0  0
  4  5  1  0  0  0  0
  4  8  1  0  0  0  0
  5  7  2  0  0  0  0
  5  9  1  0  0  0  0
  6  9  1  0  0  0  0
  1 10  1  0  0  0  0
  2 11  1  0  0  0  0
  3 12  1  0  0  0  0
  6 13  1  0  0  0  0
  6 14  1  0  0  0  0
  6 15  1  0  0  0  0
  8 16  1  0  0  0  0
  8 17  1  0  0  0  0
M  END
$$$$
frag.vs.137
  -OEChem-01121112263D

 21 21  0     0  0  0  0  0  0999 V2000
   -0.2303   -1.3824   -1.7538 C   0  0  0  0  0  0  0  0  0  0  0  0
    0.0890   -0.9817   -0.4426 C   0  0  0  0  0  0  0  0  0  0  0  0
    0.0707   -2.7221   -1.7863 C   0  0  0  0  0  0  0  0  0  0  0  0
   -0.0339    0.3315    0.1230 C   0  0  0  0  0  0  0  0  0  0  0  0
   -0.0398   -3.7138   -2.8716 C   0  0  0  0  0  0  0  0  0  0  0  0
    0.9795   -4.3233   -0.0758 C   0  0  0  0  0  0  0  0  0  0  0  0
   -0.6917    2.5954   -0.3339 C   0  0  0  0  0  0  0  0  0  0  0  0
    0.5568   -1.9856    0.3039 N   0  0  0  0  0  0  0  0  0  0  0  0
    0.5336   -3.0305   -0.5409 N   0  0  0  0  0  0  0  0  0  0  0  0
    0.2632    0.6403    1.2964 O   0  0  0  0  0  0  0  0  0  0  0  0
   -0.5245    1.2455   -0.7802 O   0  0  0  0  0  0  0  0  0  0  0  0
   -0.6233   -0.7842   -2.5633 H   0  0  0  0  0  0  0  0  0  0  0  0
    0.8881   -3.7597   -3.4662 H   0  0  0  0  0  0  0  0  0  0  0  0
   -0.2407   -4.7293   -2.4878 H   0  0  0  0  0  0  0  0  0  0  0  0
   -0.8684   -3.4818   -3.5636 H   0  0  0  0  0  0  0  0  0  0  0  0
    2.0522   -4.4007   -0.2716 H   0  0  0  0  0  0  0  0  0  0  0  0
    0.7789   -4.4139    0.9954 H   0  0  0  0  0  0  0  0  0  0  0  0
    0.4347   -5.1070   -0.6096 H   0  0  0  0  0  0  0  0  0  0  0  0
   -1.0860    3.2041   -1.1513 H   0  0  0  0  0  0  0  0  0  0  0  0
    0.2709    2.9921   -0.0015 H   0  0  0  0  0  0  0  0  0  0  0  0
   -1.3969    2.6092    0.5006 H   0  0  0  0  0  0  0  0  0  0  0  0
  1  2  1  0  0  0  0
  1  3  2  0  0  0  0
  2  4  1  0  0  0  0
  2  8  2  0  0  0  0
  3  5  1  0  0  0  0
  3  9  1  0  0  0  0
  4 10  2  0  0  0  0
  4 11  1  0  0  0  0
  6  9  1  0  0  0  0
  7 11  1  0  0  0  0
  8  9  1  0  0  0  0
  1 12  1  0  0  0  0
  5 13  1  0  0  0  0
  5 14  1  0  0  0  0
  5 15  1  0  0  0  0
  6 16  1  0  0  0  0
  6 17  1  0  0  0  0
  6 18  1  0  0  0  0
  7 19  1  0  0  0  0
  7 20  1  0  0  0  0
  7 21  1  0  0  0  0
M  END
$$$$
frag.vs.138
  -OEChem-01121112263D

 24 24  0     0  0  0  0  0  0999 V2000
   -0.2303   -1.3824   -1.7538 C   0  0  0  0  0  0  0  0  0  0  0  0
    0.0890   -0.9817   -0.4426 C   0  0  0  0  0  0  0  0  0  0  0  0
    0.0707   -2.7221   -1.7863 C   0  0  0  0  0  0  0  0  0  0  0  0
   -0.0339    0.3315    0.1230 C   0  0  0  0  0  0  0  0  0  0  0  0
   -0.0398   -3.7138   -2.8716 C   0  0  0  0  0  0  0  0  0  0  0  0
   -1.2380    3.4278   -1.4743 C   0  0  0  0  0  0  0  0  0  0  0  0
    0.9795   -4.3233   -0.0758 C   0  0  0  0  0  0  0  0  0  0  0  0
   -0.6917    2.5954   -0.3339 C   0  0  0  0  0  0  0  0  0  0  0  0
    0.5568   -1.9856    0.3039 N   0  0  0  0  0  0  0  0  0  0  0  0
    0.5336   -3.0305   -0.5409 N   0  0  0  0  0  0  0  0  0  0  0  0
    0.2632    0.6403    1.2964 O   0  0  0  0  0  0  0  0  0  0  0  0
   -0.5245    1.2455   -0.7802 O   0  0  0  0  0  0  0  0  0  0  0  0
   -0.6233   -0.7842   -2.5633 H   0  0  0  0  0  0  0  0  0  0  0  0
    0.8881   -3.7597   -3.4662 H   0  0  0  0  0  0  0  0  0  0  0  0
   -0.2407   -4.7293   -2.4878 H   0  0  0  0  0  0  0  0  0  0  0  0
   -0.8684   -3.4818   -3.5636 H   0  0  0  0  0  0  0  0  0  0  0  0
   -0.5502    3.4240   -2.3244 H   0  0  0  0  0  0  0  0  0  0  0  0
   -2.2087    3.0423   -1.8031 H   0  0  0  0  0  0  0  0  0  0  0  0
   -1.3984    4.4627   -1.1542 H   0  0  0  0  0  0  0  0  0  0  0  0
    2.0522   -4.4007   -0.2716 H   0  0  0  0  0  0  0  0  0  0  0  0
    0.7789   -4.4139    0.9954 H   0  0  0  0  0  0  0  0  0  0  0  0
    0.4347   -5.1070   -0.6096 H   0  0  0  0  0  0  0  0  0  0  0  0
   -1.3843    2.6034    0.5131 H   0  0  0  0  0  0  0  0  0  0  0  0
    0.2785    2.9814   -0.0071 H   0  0  0  0  0  0  0  0  0  0  0  0
  1  2  1  0  0  0  0
  1  3  2  0  0  0  0
  2  4  1  0  0  0  0
  2  9  2  0  0  0  0
  3  5  1  0  0  0  0
  3 10  1  0  0  0  0
  4 11  2  0  0  0  0
  4 12  1  0  0  0  0
  6  8  1  0  0  0  0
  7 10  1  0  0  0  0
  8 12  1  0  0  0  0
  9 10  1  0  0  0  0
  1 13  1  0  0  0  0
  5 14  1  0  0  0  0
  5 15  1  0  0  0  0
  5 16  1  0  0  0  0
  6 17  1  0  0  0  0
  6 18  1  0  0  0  0
  6 19  1  0  0  0  0
  7 20  1  0  0  0  0
  7 21  1  0  0  0  0
  7 22  1  0  0  0  0
  8 23  1  0  0  0  0
  8 24  1  0  0  0  0
M  END
$$$$
frag.vs.139
  -OEChem-01121112263D

 17 17  0     0  0  0  0  0  0999 V2000
    2.1607    0.6077   -0.0597 C   0  0  0  0  0  0  0  0  0  0  0  0
    0.7635    0.7611   -0.0659 C   0  0  0  0  0  0  0  0  0  0  0  0
    2.6296    1.8901   -0.1674 C   0  0  0  0  0  0  0  0  0  0  0  0
   -0.2326   -0.2667    0.0235 C   0  0  0  0  0  0  0  0  0  0  0  0
    3.9732    2.4794   -0.2218 C   0  0  0  0  0  0  0  0  0  0  0  0
   -0.5761   -2.6363    0.2180 C   0  0  0  0  0  0  0  0  0  0  0  0
    0.3941    2.0408   -0.1696 N   0  0  0  0  0  0  0  0  0  0  0  0
   -1.4677   -0.0759    0.0134 O   0  0  0  0  0  0  0  0  0  0  0  0
    1.5849    2.7545   -0.2338 O   0  0  0  0  0  0  0  0  0  0  0  0
    0.3191   -1.5231    0.1233 O   0  0  0  0  0  0  0  0  0  0  0  0
    2.7431   -0.2992    0.0126 H   0  0  0  0  0  0  0  0  0  0  0  0
    4.3396    2.5576   -1.2615 H   0  0  0  0  0  0  0  0  0  0  0  0
    4.0061    3.4953    0.2153 H   0  0  0  0  0  0  0  0  0  0  0  0
    4.7166    1.8873    0.3449 H   0  0  0  0  0  0  0  0  0  0  0  0
   -0.0007   -3.5624    0.2908 H   0  0  0  0  0  0  0  0  0  0  0  0
   -1.2199   -2.6633   -0.6648 H   0  0  0  0  0  0  0  0  0  0  0  0
   -1.1925   -2.5217    1.1127 H   0  0  0  0  0  0  0  0  0  0  0  0
  1  2  1  0  0  0  0
  1  3  2  0  0  0  0
  2  4  1  0  0  0  0
  2  7  2  0  0  0  0
  3  5  1  0  0  0  0
  3  9  1  0  0  0  0
  4  8  2  0  0  0  0
  4 10  1  0  0  0  0
  6 10  1  0  0  0  0
  7  9  1  0  0  0  0
  1 11  1  0  0  0  0
  5 12  1  0  0  0  0
  5 13  1  0  0  0  0
  5 14  1  0  0  0  0
  6 15  1  0  0  0  0
  6 16  1  0  0  0  0
  6 17  1  0  0  0  0
M  END
$$$$
frag.vs.140
  -OEChem-01121112263D

 26 27  0     0  0  0  0  0  0999 V2000
    1.8847   -1.0341   -0.1124 C   0  0  0  0  0  0  0  0  0  0  0  0
    2.1639    0.1244    0.6124 C   0  0  0  0  0  0  0  0  0  0  0  0
    1.5629   -2.2149    0.5568 C   0  0  0  0  0  0  0  0  0  0  0  0
    2.1214    0.1022    2.0064 C   0  0  0  0  0  0  0  0  0  0  0  0
    1.5204   -2.2372    1.9508 C   0  0  0  0  0  0  0  0  0  0  0  0
    1.9709   -0.1586    5.0952 C   0  0  0  0  0  0  0  0  0  0  0  0
    1.7997   -1.0786    2.6757 C   0  0  0  0  0  0  0  0  0  0  0  0
    1.7693   -0.8201    6.3300 C   0  0  0  0  0  0  0  0  0  0  0  0
    1.7549   -1.1012    4.1171 C   0  0  0  0  0  0  0  0  0  0  0  0
    1.4443   -2.1199    6.0185 C   0  0  0  0  0  0  0  0  0  0  0  0
    1.1203   -3.3026    6.8300 C   0  0  0  0  0  0  0  0  0  0  0  0
    1.8849   -0.2310    7.6766 C   0  0  0  0  0  0  0  0  0  0  0  0
    1.4333   -2.2994    4.6715 O   0  0  0  0  0  0  0  0  0  0  0  0
    0.5860   -0.0184    8.2309 O   0  0  0  0  0  0  0  0  0  0  0  0
    1.9172   -1.0166   -1.1979 H   0  0  0  0  0  0  0  0  0  0  0  0
    2.4147    1.0437    0.0911 H   0  0  0  0  0  0  0  0  0  0  0  0
    1.3444   -3.1168   -0.0077 H   0  0  0  0  0  0  0  0  0  0  0  0
    2.3390    1.0143    2.5571 H   0  0  0  0  0  0  0  0  0  0  0  0
    1.2690   -3.1658    2.4577 H   0  0  0  0  0  0  0  0  0  0  0  0
    2.2402    0.8771    4.9391 H   0  0  0  0  0  0  0  0  0  0  0  0
    0.0358   -3.3715    7.0267 H   0  0  0  0  0  0  0  0  0  0  0  0
    1.4277   -4.2446    6.3398 H   0  0  0  0  0  0  0  0  0  0  0  0
    1.6338   -3.2928    7.8091 H   0  0  0  0  0  0  0  0  0  0  0  0
    2.4471   -0.8816    8.3706 H   0  0  0  0  0  0  0  0  0  0  0  0
    2.4115    0.7401    7.6597 H   0  0  0  0  0  0  0  0  0  0  0  0
    0.7234    0.3672    9.1091 H   0  0  0  0  0  0  0  0  0  0  0  0
  1  2  1  0  0  0  0
  1  3  2  0  0  0  0
  2  4  2  0  0  0  0
  3  5  1  0  0  0  0
  4  7  1  0  0  0  0
  5  7  2  0  0  0  0
  6  8  1  0  0  0  0
  6  9  2  0  0  0  0
  7  9  1  0  0  0  0
  8 10  2  0  0  0  0
  8 12  1  0  0  0  0
  9 13  1  0  0  0  0
 10 11  1  0  0  0  0
 10 13  1  0  0  0  0
 12 14  1  0  0  0  0
  1 15  1  0  0  0  0
  2 16  1  0  0  0  0
  3 17  1  0  0  0  0
  4 18  1  0  0  0  0
  5 19  1  0  0  0  0
  6 20  1  0  0  0  0
 11 21  1  0  0  0  0
 11 22  1  0  0  0  0
 11 23  1  0  0  0  0
 12 24  1  0  0  0  0
 12 25  1  0  0  0  0
 14 26  1  0  0  0  0
M  END
$$$$
frag.vs.141
  -OEChem-01121112263D

 18 19  0     0  0  0  0  0  0999 V2000
   -0.9828    1.8432   -0.5132 C   0  0  0  0  0  0  0  0  0  0  0  0
   -0.9455    0.4696   -0.2604 C   0  0  0  0  0  0  0  0  0  0  0  0
   -2.1827    2.4837   -0.8519 C   0  0  0  0  0  0  0  0  0  0  0  0
   -2.1012   -0.3134   -0.3361 C   0  0  0  0  0  0  0  0  0  0  0  0
   -4.7209    1.9732   -1.2341 C   0  0  0  0  0  0  0  0  0  0  0  0
   -3.3574    1.7156   -0.9335 C   0  0  0  0  0  0  0  0  0  0  0  0
   -3.2786    0.3511   -0.6747 C   0  0  0  0  0  0  0  0  0  0  0  0
   -5.3737    0.7659   -1.1396 C   0  0  0  0  0  0  0  0  0  0  0  0
   -6.7397    0.4167   -1.3320 C   0  0  0  0  0  0  0  0  0  0  0  0
   -7.2415   -0.7269   -1.2207 O   0  0  0  0  0  0  0  0  0  0  0  0
   -4.5075   -0.2244   -0.8009 O   0  0  0  0  0  0  0  0  0  0  0  0
   -7.5390    1.4812   -1.6706 O   0  0  0  0  0  0  0  0  0  0  0  0
   -0.0676    2.4258   -0.4460 H   0  0  0  0  0  0  0  0  0  0  0  0
   -0.0002   -0.0000    0.0002 H   0  0  0  0  0  0  0  0  0  0  0  0
   -2.1964    3.5520   -1.0452 H   0  0  0  0  0  0  0  0  0  0  0  0
   -2.0795   -1.3788   -0.1406 H   0  0  0  0  0  0  0  0  0  0  0  0
   -5.1679    2.9242   -1.4888 H   0  0  0  0  0  0  0  0  0  0  0  0
   -8.4831    1.2509   -1.8046 H   0  0  0  0  0  0  0  0  0  0  0  0
  1  2  1  0  0  0  0
  1  3  2  0  0  0  0
  2  4  2  0  0  0  0
  3  6  1  0  0  0  0
  4  7  1  0  0  0  0
  5  6  1  0  0  0  0
  5  8  2  0  0  0  0
  6  7  2  0  0  0  0
  7 11  1  0  0  0  0
  8  9  1  0  0  0  0
  8 11  1  0  0  0  0
  9 10  2  0  0  0  0
  9 12  1  0  0  0  0
  1 13  1  0  0  0  0
  2 14  1  0  0  0  0
  3 15  1  0  0  0  0
  4 16  1  0  0  0  0
  5 17  1  0  0  0  0
 12 18  1  0  0  0  0
M  END
$$$$
frag.vs.142
  -OEChem-01121112263D

 24 25  0     0  0  0  0  0  0999 V2000
    7.6383   -0.3482    0.2574 C   0  0  0  0  0  0  0  0  0  0  0  0
    7.1789   -1.1118    1.3247 C   0  0  0  0  0  0  0  0  0  0  0  0
    2.4083   -0.9274   -1.3357 C   0  0  0  0  0  0  0  0  0  0  0  0
    1.7070   -0.7338   -2.5258 C   0  0  0  0  0  0  0  0  0  0  0  0
    2.7692   -2.6878   -3.4695 C   0  0  0  0  0  0  0  0  0  0  0  0
    6.8295   -0.2468   -0.8630 C   0  0  0  0  0  0  0  0  0  0  0  0
    5.9423   -1.7418    1.2402 C   0  0  0  0  0  0  0  0  0  0  0  0
    3.2902   -2.0012   -1.2125 C   0  0  0  0  0  0  0  0  0  0  0  0
    1.8875   -1.6140   -3.5927 C   0  0  0  0  0  0  0  0  0  0  0  0
    3.4706   -2.8814   -2.2794 C   0  0  0  0  0  0  0  0  0  0  0  0
    5.2093   -1.5778    0.0759 C   0  0  0  0  0  0  0  0  0  0  0  0
    5.6225   -0.8440   -0.9817 N   0  0  0  0  0  0  0  0  0  0  0  0
    5.4649   -2.5163    2.3126 N   0  0  0  0  0  0  0  0  0  0  0  0
    3.9731   -2.1892   -0.0504 O   0  0  0  0  0  0  0  0  0  0  0  0
    1.2128   -1.4289   -4.7349 F   0  0  0  0  0  0  0  0  0  0  0  0
    4.3154   -3.9154   -2.1666 F   0  0  0  0  0  0  0  0  0  0  0  0
    8.5994    0.1510    0.3010 H   0  0  0  0  0  0  0  0  0  0  0  0
    7.7923   -1.2095    2.2165 H   0  0  0  0  0  0  0  0  0  0  0  0
    2.2637   -0.2379   -0.5084 H   0  0  0  0  0  0  0  0  0  0  0  0
    1.0209    0.1025   -2.6211 H   0  0  0  0  0  0  0  0  0  0  0  0
    2.9089   -3.3730   -4.3002 H   0  0  0  0  0  0  0  0  0  0  0  0
    7.1435    0.3346   -1.7237 H   0  0  0  0  0  0  0  0  0  0  0  0
    6.0439   -2.6492    3.1195 H   0  0  0  0  0  0  0  0  0  0  0  0
    4.5938   -3.0023    2.2186 H   0  0  0  0  0  0  0  0  0  0  0  0
  1  2  1  0  0  0  0
  1  6  2  0  0  0  0
  2  7  2  0  0  0  0
  3  4  2  0  0  0  0
  3  8  1  0  0  0  0
  4  9  1  0  0  0  0
  5  9  2  0  0  0  0
  5 10  1  0  0  0  0
  6 12  1  0  0  0  0
  7 11  1  0  0  0  0
  7 13  1  0  0  0  0
  8 10  2  0  0  0  0
  8 14  1  0  0  0  0
  9 15  1  0  0  0  0
 10 16  1  0  0  0  0
 11 12  2  0  0  0  0
 11 14  1  0  0  0  0
  1 17  1  0  0  0  0
  2 18  1  0  0  0  0
  3 19  1  0  0  0  0
  4 20  1  0  0  0  0
  5 21  1  0  0  0  0
  6 22  1  0  0  0  0
 13 23  1  0  0  0  0
 13 24  1  0  0  0  0
M  END
$$$$
frag.vs.143_0
  -OEChem-01121112263D

 21 22  0     1  0  0  0  0  0999 V2000
    2.1341    0.2819    0.0755 C   0  0  0  0  0  0  0  0  0  0  0  0
    0.8088    0.7175    0.1048 C   0  0  0  0  0  0  0  0  0  0  0  0
    3.1758    1.1994    0.2145 C   0  0  0  0  0  0  0  0  0  0  0  0
    0.5208    2.0735    0.2623 C   0  0  0  0  0  0  0  0  0  0  0  0
    2.8889    2.5538    0.3856 C   0  0  0  0  0  0  0  0  0  0  0  0
    1.5621    2.9932    0.3874 C   0  0  0  0  0  0  0  0  0  0  0  0
    1.9671    6.5297    0.8431 C   0  0  0  0  0  0  0  0  0  0  0  0
    3.5485    4.6805    1.0428 C   0  0  0  0  0  0  0  0  0  0  0  0
    2.3323    5.1733    0.2846 C   0  0  1  0  0  0  0  0  0  0  0  0
    0.9104    6.8007    1.3938 O   0  0  0  0  0  0  0  0  0  0  0  0
    3.9535    3.4039    0.5375 O   0  0  0  0  0  0  0  0  0  0  0  0
    1.2177    4.3136    0.5188 O   0  0  0  0  0  0  0  0  0  0  0  0
    2.9751    7.4148    0.6483 O   0  0  0  0  0  0  0  0  0  0  0  0
    2.3549   -0.7740   -0.0514 H   0  0  0  0  0  0  0  0  0  0  0  0
    0.0000    0.0000    0.0004 H   0  0  0  0  0  0  0  0  0  0  0  0
    4.2047    0.8503    0.1994 H   0  0  0  0  0  0  0  0  0  0  0  0
   -0.5138    2.4051    0.2754 H   0  0  0  0  0  0  0  0  0  0  0  0
    4.3899    5.3711    0.9202 H   0  0  0  0  0  0  0  0  0  0  0  0
    3.3545    4.5836    2.1192 H   0  0  0  0  0  0  0  0  0  0  0  0
    2.5226    5.2704   -0.7806 H   0  0  0  0  0  0  0  0  0  0  0  0
    2.7564    8.3030    1.0027 H   0  0  0  0  0  0  0  0  0  0  0  0
  1  2  1  0  0  0  0
  1  3  2  0  0  0  0
  2  4  2  0  0  0  0
  3  5  1  0  0  0  0
  4  6  1  0  0  0  0
  5  6  2  0  0  0  0
  5 11  1  0  0  0  0
  6 12  1  0  0  0  0
  7  9  1  0  0  0  0
  7 10  2  0  0  0  0
  7 13  1  0  0  0  0
  8  9  1  0  0  0  0
  8 11  1  0  0  0  0
  9 12  1  0  0  0  0
  1 14  1  0  0  0  0
  2 15  1  0  0  0  0
  3 16  1  0  0  0  0
  4 17  1  0  0  0  0
  8 18  1  0  0  0  0
  8 19  1  0  0  0  0
  9 20  1  0  0  0  0
 13 21  1  0  0  0  0
M  END
$$$$
frag.vs.143_1
  -OEChem-01121112263D

 21 22  0     1  0  0  0  0  0999 V2000
    2.0038   -0.3928   -0.6847 C   0  0  0  0  0  0  0  0  0  0  0  0
    0.6251   -0.2605   -0.8491 C   0  0  0  0  0  0  0  0  0  0  0  0
    2.8084   -0.7248   -1.7746 C   0  0  0  0  0  0  0  0  0  0  0  0
    0.0475   -0.4694   -2.1016 C   0  0  0  0  0  0  0  0  0  0  0  0
    2.2320   -0.9186   -3.0306 C   0  0  0  0  0  0  0  0  0  0  0  0
    0.8508   -0.8103   -3.1909 C   0  0  0  0  0  0  0  0  0  0  0  0
    1.0187   -3.0739   -5.2922 C   0  0  0  0  0  0  0  0  0  0  0  0
    2.4677   -1.0187   -5.3365 C   0  0  0  0  0  0  0  0  0  0  0  0
    1.0553   -1.5766   -5.3931 C   0  0  2  0  0  0  0  0  0  0  0  0
    0.4380   -3.7046   -4.4214 O   0  0  0  0  0  0  0  0  0  0  0  0
    3.0751   -1.2344   -4.0607 O   0  0  0  0  0  0  0  0  0  0  0  0
    0.2155   -1.0305   -4.3827 O   0  0  0  0  0  0  0  0  0  0  0  0
    1.7237   -3.6392   -6.3025 O   0  0  0  0  0  0  0  0  0  0  0  0
    2.4513   -0.2348    0.2923 H   0  0  0  0  0  0  0  0  0  0  0  0
    0.0001    0.0005    0.0002 H   0  0  0  0  0  0  0  0  0  0  0  0
    3.8822   -0.8209   -1.6394 H   0  0  0  0  0  0  0  0  0  0  0  0
   -1.0288   -0.3753   -2.2181 H   0  0  0  0  0  0  0  0  0  0  0  0
    3.1059   -1.4935   -6.0895 H   0  0  0  0  0  0  0  0  0  0  0  0
    2.4671    0.0610   -5.5337 H   0  0  0  0  0  0  0  0  0  0  0  0
    0.6065   -1.3204   -6.3610 H   0  0  0  0  0  0  0  0  0  0  0  0
    1.7134   -4.6189   -6.2531 H   0  0  0  0  0  0  0  0  0  0  0  0
  1  2  1  0  0  0  0
  1  3  2  0  0  0  0
  2  4  2  0  0  0  0
  3  5  1  0  0  0  0
  4  6  1  0  0  0  0
  5  6  2  0  0  0  0
  5 11  1  0  0  0  0
  6 12  1  0  0  0  0
  7  9  1  0  0  0  0
  7 10  2  0  0  0  0
  7 13  1  0  0  0  0
  8  9  1  0  0  0  0
  8 11  1  0  0  0  0
  9 12  1  0  0  0  0
  1 14  1  0  0  0  0
  2 15  1  0  0  0  0
  3 16  1  0  0  0  0
  4 17  1  0  0  0  0
  8 18  1  0  0  0  0
  8 19  1  0  0  0  0
  9 20  1  0  0  0  0
 13 21  1  0  0  0  0
M  END
$$$$
frag.vs.144
  -OEChem-01121112263D

 27 28  0     0  0  0  0  0  0999 V2000
    1.8831   -1.0374   -0.1125 C   0  0  0  0  0  0  0  0  0  0  0  0
    2.7672   -0.2485    0.6234 C   0  0  0  0  0  0  0  0  0  0  0  0
    0.9572   -1.8468    0.5457 C   0  0  0  0  0  0  0  0  0  0  0  0
    2.8979   -1.5906    8.2583 C   0  0  0  0  0  0  0  0  0  0  0  0
    2.7256   -0.2692    2.0175 C   0  0  0  0  0  0  0  0  0  0  0  0
    0.9155   -1.8675    1.9397 C   0  0  0  0  0  0  0  0  0  0  0  0
    2.3424   -1.7881    6.9990 C   0  0  0  0  0  0  0  0  0  0  0  0
    4.2787   -1.5313    8.3560 C   0  0  0  0  0  0  0  0  0  0  0  0
    1.7997   -1.0786    2.6757 C   0  0  0  0  0  0  0  0  0  0  0  0
    3.1730   -1.9185    5.8916 C   0  0  0  0  0  0  0  0  0  0  0  0
    4.5416   -1.8442    6.0952 C   0  0  0  0  0  0  0  0  0  0  0  0
    1.7548   -1.1014    4.1663 C   0  0  0  0  0  0  0  0  0  0  0  0
    5.1179   -1.6534    7.3032 N   0  0  0  0  0  0  0  0  0  0  0  0
    5.3888   -1.9781    4.9667 N   0  0  0  0  0  0  0  0  0  0  0  0
    2.6283   -2.1143    4.6498 O   0  0  0  0  0  0  0  0  0  0  0  0
    1.9148   -1.0201   -1.1980 H   0  0  0  0  0  0  0  0  0  0  0  0
    3.4875    0.3827    0.1111 H   0  0  0  0  0  0  0  0  0  0  0  0
    0.2679   -2.4603   -0.0270 H   0  0  0  0  0  0  0  0  0  0  0  0
    2.2713   -1.4859    9.1365 H   0  0  0  0  0  0  0  0  0  0  0  0
    3.4185    0.3487    2.5827 H   0  0  0  0  0  0  0  0  0  0  0  0
    0.1908   -2.5013    2.4440 H   0  0  0  0  0  0  0  0  0  0  0  0
    1.2630   -1.8387    6.8875 H   0  0  0  0  0  0  0  0  0  0  0  0
    4.7616   -1.3784    9.3157 H   0  0  0  0  0  0  0  0  0  0  0  0
    2.0660   -0.1374    4.5914 H   0  0  0  0  0  0  0  0  0  0  0  0
    0.7389   -1.3085    4.5295 H   0  0  0  0  0  0  0  0  0  0  0  0
    4.9796   -2.1671    4.0780 H   0  0  0  0  0  0  0  0  0  0  0  0
    6.3759   -1.9741    5.1037 H   0  0  0  0  0  0  0  0  0  0  0  0
  1  2  1  0  0  0  0
  1  3  2  0  0  0  0
  2  5  2  0  0  0  0
  3  6  1  0  0  0  0
  4  7  2  0  0  0  0
  4  8  1  0  0  0  0
  5  9  1  0  0  0  0
  6  9  2  0  0  0  0
  7 10  1  0  0  0  0
  8 13  2  0  0  0  0
  9 12  1  0  0  0  0
 10 11  2  0  0  0  0
 10 15  1  0  0  0  0
 11 13  1  0  0  0  0
 11 14  1  0  0  0  0
 12 15  1  0  0  0  0
  1 16  1  0  0  0  0
  2 17  1  0  0  0  0
  3 18  1  0  0  0  0
  4 19  1  0  0  0  0
  5 20  1  0  0  0  0
  6 21  1  0  0  0  0
  7 22  1  0  0  0  0
  8 23  1  0  0  0  0
 12 24  1  0  0  0  0
 12 25  1  0  0  0  0
 14 26  1  0  0  0  0
 14 27  1  0  0  0  0
M  END
$$$$
frag.vs.145
  -OEChem-01121112263D

 28 29  0     0  0  0  0  0  0999 V2000
    0.7017   -5.1026    3.3806 C   0  0  0  0  0  0  0  0  0  0  0  0
   -1.5341   -5.0920    4.2962 C   0  0  0  0  0  0  0  0  0  0  0  0
    0.7710   -3.7180    3.5338 C   0  0  0  0  0  0  0  0  0  0  0  0
   -1.4648   -3.7074    4.4494 C   0  0  0  0  0  0  0  0  0  0  0  0
   -0.4509   -5.7897    3.7618 C   0  0  0  0  0  0  0  0  0  0  0  0
   -0.3122   -3.0203    4.0682 C   0  0  0  0  0  0  0  0  0  0  0  0
   -0.5215   -7.2153    3.6046 C   0  0  0  0  0  0  0  0  0  0  0  0
    0.0379   -9.1480    3.1235 C   0  0  0  0  0  0  0  0  0  0  0  0
    0.6630  -10.4092    2.7032 C   0  0  0  0  0  0  0  0  0  0  0  0
    0.6553    0.2996    5.4903 C   0  0  0  0  0  0  0  0  0  0  0  0
   -0.2365   -1.5400    4.2327 C   0  0  0  0  0  0  0  0  0  0  0  0
    0.5185   -7.9309    3.0864 N   0  0  0  0  0  0  0  0  0  0  0  0
   -1.5990   -7.9252    3.9522 N   0  0  0  0  0  0  0  0  0  0  0  0
    0.5853   -1.1545    5.3518 N   0  0  0  0  0  0  0  0  0  0  0  0
   -1.2213   -9.2340    3.6268 O   0  0  0  0  0  0  0  0  0  0  0  0
    1.5545   -5.6316    2.9617 H   0  0  0  0  0  0  0  0  0  0  0  0
   -2.4395   -5.6133    4.5982 H   0  0  0  0  0  0  0  0  0  0  0  0
    1.6730   -3.1905    3.2350 H   0  0  0  0  0  0  0  0  0  0  0  0
   -2.3130   -3.1712    4.8667 H   0  0  0  0  0  0  0  0  0  0  0  0
    1.2210  -10.8800    3.5325 H   0  0  0  0  0  0  0  0  0  0  0  0
   -0.0785  -11.1474    2.3446 H   0  0  0  0  0  0  0  0  0  0  0  0
    1.3729  -10.2687    1.8666 H   0  0  0  0  0  0  0  0  0  0  0  0
    1.0598    0.7448    4.5776 H   0  0  0  0  0  0  0  0  0  0  0  0
    1.3023    0.5685    6.3298 H   0  0  0  0  0  0  0  0  0  0  0  0
   -0.3416    0.7106    5.6705 H   0  0  0  0  0  0  0  0  0  0  0  0
    0.1825   -1.0626    3.3358 H   0  0  0  0  0  0  0  0  0  0  0  0
   -1.2312   -1.1007    4.3903 H   0  0  0  0  0  0  0  0  0  0  0  0
    0.2037   -1.5454    6.2190 H   0  0  0  0  0  0  0  0  0  0  0  0
  1  3  2  0  0  0  0
  1  5  1  0  0  0  0
  2  4  1  0  0  0  0
  2  5  2  0  0  0  0
  3  6  1  0  0  0  0
  4  6  2  0  0  0  0
  5  7  1  0  0  0  0
  6 11  1  0  0  0  0
  7 12  1  0  0  0  0
  7 13  2  0  0  0  0
  8  9  1  0  0  0  0
  8 12  2  0  0  0  0
  8 15  1  0  0  0  0
 10 14  1  0  0  0  0
 11 14  1  0  0  0  0
 13 15  1  0  0  0  0
  1 16  1  0  0  0  0
  2 17  1  0  0  0  0
  3 18  1  0  0  0  0
  4 19  1  0  0  0  0
  9 20  1  0  0  0  0
  9 21  1  0  0  0  0
  9 22  1  0  0  0  0
 10 23  1  0  0  0  0
 10 24  1  0  0  0  0
 10 25  1  0  0  0  0
 11 26  1  0  0  0  0
 11 27  1  0  0  0  0
 14 28  1  0  0  0  0
M  END
$$$$
frag.vs.146
  -OEChem-01121112263D

 27 28  0     0  0  0  0  0  0999 V2000
    1.8857   -1.0463   -0.1126 C   0  0  0  0  0  0  0  0  0  0  0  0
    3.0117   -0.6790    0.6242 C   0  0  0  0  0  0  0  0  0  0  0  0
    0.7166   -1.4296    0.5448 C   0  0  0  0  0  0  0  0  0  0  0  0
    2.9687   -0.6953    2.0183 C   0  0  0  0  0  0  0  0  0  0  0  0
    0.6737   -1.4458    1.9389 C   0  0  0  0  0  0  0  0  0  0  0  0
    2.0768    1.5223    5.2672 C   0  0  0  0  0  0  0  0  0  0  0  0
   -0.1492    0.8559    5.2103 C   0  0  0  0  0  0  0  0  0  0  0  0
    1.7997   -1.0786    2.6757 C   0  0  0  0  0  0  0  0  0  0  0  0
    1.2096    0.4890    4.9884 C   0  0  0  0  0  0  0  0  0  0  0  0
   -0.2687    2.1558    5.6507 C   0  0  0  0  0  0  0  0  0  0  0  0
   -1.4438    2.8974    5.9843 C   0  0  0  0  0  0  0  0  0  0  0  0
   -1.2056    0.0292    5.0146 N   0  0  0  0  0  0  0  0  0  0  0  0
   -1.4850    4.0824    6.3808 O   0  0  0  0  0  0  0  0  0  0  0  0
    0.7260   -2.0728    4.7876 O   0  0  0  0  0  0  0  0  0  0  0  0
    3.1025   -1.2474    4.9364 O   0  0  0  0  0  0  0  0  0  0  0  0
   -2.6030    2.1811    5.8315 O   0  0  0  0  0  0  0  0  0  0  0  0
    1.2530    2.9279    5.7945 S   0  0  0  0  0  0  0  0  0  0  0  0
    1.7474   -1.1019    4.4208 S   0  0  0  0  0  0  0  0  0  0  0  0
    1.9187   -1.0345   -1.1981 H   0  0  0  0  0  0  0  0  0  0  0  0
    3.9224   -0.3815    0.1128 H   0  0  0  0  0  0  0  0  0  0  0  0
   -0.1596   -1.7161   -0.0292 H   0  0  0  0  0  0  0  0  0  0  0  0
    3.8520   -0.4082    2.5827 H   0  0  0  0  0  0  0  0  0  0  0  0
   -0.2418   -1.7474    2.4405 H   0  0  0  0  0  0  0  0  0  0  0  0
    3.1551    1.5242    5.1879 H   0  0  0  0  0  0  0  0  0  0  0  0
   -1.0890   -0.9211    4.6408 H   0  0  0  0  0  0  0  0  0  0  0  0
   -2.1745    0.3478    5.1414 H   0  0  0  0  0  0  0  0  0  0  0  0
   -3.4158    2.6818    6.0572 H   0  0  0  0  0  0  0  0  0  0  0  0
  1  2  1  0  0  0  0
  1  3  2  0  0  0  0
  2  4  2  0  0  0  0
  3  5  1  0  0  0  0
  4  8  1  0  0  0  0
  5  8  2  0  0  0  0
  6  9  2  0  0  0  0
  6 17  1  0  0  0  0
  7  9  1  0  0  0  0
  7 10  2  0  0  0  0
  7 12  1  0  0  0  0
  8 18  1  0  0  0  0
  9 18  1  0  0  0  0
 10 11  1  0  0  0  0
 10 17  1  0  0  0  0
 11 13  2  0  0  0  0
 11 16  1  0  0  0  0
 14 18  2  0  0  0  0
 15 18  2  0  0  0  0
  1 19  1  0  0  0  0
  2 20  1  0  0  0  0
  3 21  1  0  0  0  0
  4 22  1  0  0  0  0
  5 23  1  0  0  0  0
  6 24  1  0  0  0  0
 12 25  1  0  0  0  0
 12 26  1  0  0  0  0
 16 27  1  0  0  0  0
M  END
$$$$
frag.vs.147
  -OEChem-01121112263D

 21 21  0     0  0  0  0  0  0999 V2000
    1.5204    0.4727    1.5759 C   0  0  0  0  0  0  0  0  0  0  0  0
    0.2891    0.0196    1.0414 C   0  0  0  0  0  0  0  0  0  0  0  0
    1.4575    0.3171    2.9431 C   0  0  0  0  0  0  0  0  0  0  0  0
   -0.4888   -0.3990    2.0983 C   0  0  0  0  0  0  0  0  0  0  0  0
    2.4680    0.6391    3.9040 C   0  0  0  0  0  0  0  0  0  0  0  0
   -0.2262   -0.5271    4.5866 C   0  0  0  0  0  0  0  0  0  0  0  0
    0.2315   -0.2133    3.2493 N   0  0  0  0  0  0  0  0  0  0  0  0
   -2.4796   -1.0576    0.4527 N   0  0  0  0  0  0  0  0  0  0  0  0
    2.2776    0.9948    5.0860 O   0  0  0  0  0  0  0  0  0  0  0  0
   -2.0284   -2.4413    2.5805 O   0  0  0  0  0  0  0  0  0  0  0  0
   -2.9819   -0.1195    2.7988 O   0  0  0  0  0  0  0  0  0  0  0  0
    3.7420    0.5237    3.4127 O   0  0  0  0  0  0  0  0  0  0  0  0
   -2.1284   -1.0720    2.1198 S   0  0  0  0  0  0  0  0  0  0  0  0
    2.3593    0.8686    1.0199 H   0  0  0  0  0  0  0  0  0  0  0  0
    0.0024    0.0011   -0.0008 H   0  0  0  0  0  0  0  0  0  0  0  0
   -0.7250    0.3586    4.9889 H   0  0  0  0  0  0  0  0  0  0  0  0
   -0.9204   -1.3711    4.5452 H   0  0  0  0  0  0  0  0  0  0  0  0
    0.6318   -0.7993    5.2076 H   0  0  0  0  0  0  0  0  0  0  0  0
   -2.5186   -1.9610   -0.0349 H   0  0  0  0  0  0  0  0  0  0  0  0
   -3.1682   -0.3739    0.1156 H   0  0  0  0  0  0  0  0  0  0  0  0
    4.4423    0.7416    4.0642 H   0  0  0  0  0  0  0  0  0  0  0  0
  1  2  1  0  0  0  0
  1  3  2  0  0  0  0
  2  4  2  0  0  0  0
  3  5  1  0  0  0  0
  3  7  1  0  0  0  0
  4  7  1  0  0  0  0
  4 13  1  0  0  0  0
  5  9  2  0  0  0  0
  5 12  1  0  0  0  0
  6  7  1  0  0  0  0
  8 13  1  0  0  0  0
 10 13  2  0  0  0  0
 11 13  2  0  0  0  0
  1 14  1  0  0  0  0
  2 15  1  0  0  0  0
  6 16  1  0  0  0  0
  6 17  1  0  0  0  0
  6 18  1  0  0  0  0
  8 19  1  0  0  0  0
  8 20  1  0  0  0  0
 12 21  1  0  0  0  0
M  END
$$$$
frag.vs.148
  -OEChem-01121112263D

 23 24  0     0  0  0  0  0  0999 V2000
    1.4639   -0.2150    1.5701 C   0  0  0  0  0  0  0  0  0  0  0  0
    0.2167   -0.4004    0.9841 C   0  0  0  0  0  0  0  0  0  0  0  0
    1.7335   -0.7803    2.8115 C   0  0  0  0  0  0  0  0  0  0  0  0
    1.7346   -1.7266    5.7472 C   0  0  0  0  0  0  0  0  0  0  0  0
    1.6584   -2.6135    6.8597 C   0  0  0  0  0  0  0  0  0  0  0  0
   -0.7190   -1.1534    1.6750 C   0  0  0  0  0  0  0  0  0  0  0  0
    0.7299   -1.5161    3.4206 C   0  0  0  0  0  0  0  0  0  0  0  0
    0.9296   -2.1325    4.7057 C   0  0  0  0  0  0  0  0  0  0  0  0
    0.7976   -3.6635    6.6262 C   0  0  0  0  0  0  0  0  0  0  0  0
    0.4481   -4.7848    7.5250 C   0  0  0  0  0  0  0  0  0  0  0  0
   -0.4937   -1.7181    2.8824 N   0  0  0  0  0  0  0  0  0  0  0  0
   -0.8640   -4.6418    8.1150 N   0  0  0  0  0  0  0  0  0  0  0  0
    0.0864   -3.5775    5.0709 S   0  0  0  0  0  0  0  0  0  0  0  0
    2.2243    0.3687    1.0602 H   0  0  0  0  0  0  0  0  0  0  0  0
   -0.0155    0.0300    0.0167 H   0  0  0  0  0  0  0  0  0  0  0  0
    2.7044   -0.6410    3.2761 H   0  0  0  0  0  0  0  0  0  0  0  0
    2.3520   -0.8372    5.7198 H   0  0  0  0  0  0  0  0  0  0  0  0
    2.2088   -2.4841    7.7830 H   0  0  0  0  0  0  0  0  0  0  0  0
   -1.7062   -1.3290    1.2604 H   0  0  0  0  0  0  0  0  0  0  0  0
    0.4572   -5.7521    6.9940 H   0  0  0  0  0  0  0  0  0  0  0  0
    1.1627   -4.8864    8.3595 H   0  0  0  0  0  0  0  0  0  0  0  0
   -1.0472   -5.0807    8.9991 H   0  0  0  0  0  0  0  0  0  0  0  0
   -1.6135   -4.2893    7.5476 H   0  0  0  0  0  0  0  0  0  0  0  0
  1  2  1  0  0  0  0
  1  3  2  0  0  0  0
  2  6  2  0  0  0  0
  3  7  1  0  0  0  0
  4  5  1  0  0  0  0
  4  8  2  0  0  0  0
  5  9  2  0  0  0  0
  6 11  1  0  0  0  0
  7  8  1  0  0  0  0
  7 11  2  0  0  0  0
  8 13  1  0  0  0  0
  9 10  1  0  0  0  0
  9 13  1  0  0  0  0
 10 12  1  0  0  0  0
  1 14  1  0  0  0  0
  2 15  1  0  0  0  0
  3 16  1  0  0  0  0
  4 17  1  0  0  0  0
  5 18  1  0  0  0  0
  6 19  1  0  0  0  0
 10 20  1  0  0  0  0
 10 21  1  0  0  0  0
 12 22  1  0  0  0  0
 12 23  1  0  0  0  0
M  END
$$$$
frag.vs.149
  -OEChem-01121112263D

 21 22  0     0  0  0  0  0  0999 V2000
   -1.2900    0.5390   -2.9515 C   0  0  0  0  0  0  0  0  0  0  0  0
   -2.0462   -0.4935   -2.3250 C   0  0  0  0  0  0  0  0  0  0  0  0
   -1.4316   -2.3924    0.8423 C   0  0  0  0  0  0  0  0  0  0  0  0
   -2.0739   -3.5482    1.3729 C   0  0  0  0  0  0  0  0  0  0  0  0
   -0.0454    0.6880   -2.3804 C   0  0  0  0  0  0  0  0  0  0  0  0
   -1.3504   -1.0945   -1.2990 C   0  0  0  0  0  0  0  0  0  0  0  0
   -1.7934   -2.1538   -0.4653 C   0  0  0  0  0  0  0  0  0  0  0  0
   -2.9024   -4.1490    0.4506 C   0  0  0  0  0  0  0  0  0  0  0  0
   -3.7402   -5.3566    0.6153 C   0  0  0  0  0  0  0  0  0  0  0  0
   -5.1448   -5.0480    0.7637 N   0  0  0  0  0  0  0  0  0  0  0  0
    0.2076   -0.4141   -1.0944 S   0  0  0  0  0  0  0  0  0  0  0  0
   -2.9032   -3.3204   -1.0480 S   0  0  0  0  0  0  0  0  0  0  0  0
   -1.6407    1.1412   -3.7794 H   0  0  0  0  0  0  0  0  0  0  0  0
   -3.0494   -0.7752   -2.6203 H   0  0  0  0  0  0  0  0  0  0  0  0
   -0.7402   -1.7724    1.4000 H   0  0  0  0  0  0  0  0  0  0  0  0
   -1.9336   -3.9164    2.3814 H   0  0  0  0  0  0  0  0  0  0  0  0
    0.7273    1.3913   -2.6567 H   0  0  0  0  0  0  0  0  0  0  0  0
   -3.6510   -6.0367   -0.2492 H   0  0  0  0  0  0  0  0  0  0  0  0
   -3.4489   -5.9466    1.5009 H   0  0  0  0  0  0  0  0  0  0  0  0
   -5.7312   -5.6916    1.2634 H   0  0  0  0  0  0  0  0  0  0  0  0
   -5.5413   -4.3168    0.2014 H   0  0  0  0  0  0  0  0  0  0  0  0
  1  2  1  0  0  0  0
  1  5  2  0  0  0  0
  2  6  2  0  0  0  0
  3  4  1  0  0  0  0
  3  7  2  0  0  0  0
  4  8  2  0  0  0  0
  5 11  1  0  0  0  0
  6  7  1  0  0  0  0
  6 11  1  0  0  0  0
  7 12  1  0  0  0  0
  8  9  1  0  0  0  0
  8 12  1  0  0  0  0
  9 10  1  0  0  0  0
  1 13  1  0  0  0  0
  2 14  1  0  0  0  0
  3 15  1  0  0  0  0
  4 16  1  0  0  0  0
  5 17  1  0  0  0  0
  9 18  1  0  0  0  0
  9 19  1  0  0  0  0
 10 20  1  0  0  0  0
 10 21  1  0  0  0  0
M  END
$$$$
frag.vs.150
  -OEChem-01121112263D

 22 23  0     0  0  0  0  0  0999 V2000
    1.4639   -0.2150    1.5701 C   0  0  0  0  0  0  0  0  0  0  0  0
    0.2167   -0.4004    0.9841 C   0  0  0  0  0  0  0  0  0  0  0  0
    1.7335   -0.7803    2.8115 C   0  0  0  0  0  0  0  0  0  0  0  0
    1.7346   -1.7266    5.7472 C   0  0  0  0  0  0  0  0  0  0  0  0
    1.6584   -2.6135    6.8597 C   0  0  0  0  0  0  0  0  0  0  0  0
   -0.7190   -1.1534    1.6750 C   0  0  0  0  0  0  0  0  0  0  0  0
    0.7299   -1.5161    3.4206 C   0  0  0  0  0  0  0  0  0  0  0  0
    0.9296   -2.1325    4.7057 C   0  0  0  0  0  0  0  0  0  0  0  0
    0.7976   -3.6635    6.6262 C   0  0  0  0  0  0  0  0  0  0  0  0
    0.4481   -4.7848    7.5250 C   0  0  0  0  0  0  0  0  0  0  0  0
   -0.4937   -1.7181    2.8824 N   0  0  0  0  0  0  0  0  0  0  0  0
   -0.8571   -4.5848    8.0647 O   0  0  0  0  0  0  0  0  0  0  0  0
    0.0864   -3.5775    5.0709 S   0  0  0  0  0  0  0  0  0  0  0  0
    2.2243    0.3687    1.0602 H   0  0  0  0  0  0  0  0  0  0  0  0
   -0.0155    0.0300    0.0167 H   0  0  0  0  0  0  0  0  0  0  0  0
    2.7044   -0.6410    3.2761 H   0  0  0  0  0  0  0  0  0  0  0  0
    2.3520   -0.8372    5.7198 H   0  0  0  0  0  0  0  0  0  0  0  0
    2.2088   -2.4841    7.7830 H   0  0  0  0  0  0  0  0  0  0  0  0
   -1.7062   -1.3290    1.2604 H   0  0  0  0  0  0  0  0  0  0  0  0
    0.4559   -5.7543    6.9987 H   0  0  0  0  0  0  0  0  0  0  0  0
    1.1581   -4.8727    8.3648 H   0  0  0  0  0  0  0  0  0  0  0  0
   -1.0348   -5.3427    8.6423 H   0  0  0  0  0  0  0  0  0  0  0  0
  1  2  1  0  0  0  0
  1  3  2  0  0  0  0
  2  6  2  0  0  0  0
  3  7  1  0  0  0  0
  4  5  1  0  0  0  0
  4  8  2  0  0  0  0
  5  9  2  0  0  0  0
  6 11  1  0  0  0  0
  7  8  1  0  0  0  0
  7 11  2  0  0  0  0
  8 13  1  0  0  0  0
  9 10  1  0  0  0  0
  9 13  1  0  0  0  0
 10 12  1  0  0  0  0
  1 14  1  0  0  0  0
  2 15  1  0  0  0  0
  3 16  1  0  0  0  0
  4 17  1  0  0  0  0
  5 18  1  0  0  0  0
  6 19  1  0  0  0  0
 10 20  1  0  0  0  0
 10 21  1  0  0  0  0
 12 22  1  0  0  0  0
M  END
$$$$
frag.vs.151
  -OEChem-01121112263D

 20 21  0     0  0  0  0  0  0999 V2000
   -0.7382    0.1309   -3.1768 C   0  0  0  0  0  0  0  0  0  0  0  0
   -1.2106   -1.1139   -2.6694 C   0  0  0  0  0  0  0  0  0  0  0  0
   -1.4316   -2.3924    0.8423 C   0  0  0  0  0  0  0  0  0  0  0  0
   -2.0739   -3.5482    1.3729 C   0  0  0  0  0  0  0  0  0  0  0  0
   -0.5353    1.0544   -2.1750 C   0  0  0  0  0  0  0  0  0  0  0  0
   -1.3504   -1.0945   -1.2990 C   0  0  0  0  0  0  0  0  0  0  0  0
   -1.7934   -2.1538   -0.4653 C   0  0  0  0  0  0  0  0  0  0  0  0
   -2.9024   -4.1490    0.4506 C   0  0  0  0  0  0  0  0  0  0  0  0
   -3.7402   -5.3566    0.6153 C   0  0  0  0  0  0  0  0  0  0  0  0
   -5.1102   -4.9817    0.7481 O   0  0  0  0  0  0  0  0  0  0  0  0
   -0.9135    0.4201   -0.6301 S   0  0  0  0  0  0  0  0  0  0  0  0
   -2.9032   -3.3204   -1.0480 S   0  0  0  0  0  0  0  0  0  0  0  0
   -0.5557    0.3383   -4.2231 H   0  0  0  0  0  0  0  0  0  0  0  0
   -1.4326   -1.9758   -3.2867 H   0  0  0  0  0  0  0  0  0  0  0  0
   -0.7402   -1.7724    1.4000 H   0  0  0  0  0  0  0  0  0  0  0  0
   -1.9336   -3.9164    2.3814 H   0  0  0  0  0  0  0  0  0  0  0  0
   -0.1832    2.0712   -2.2766 H   0  0  0  0  0  0  0  0  0  0  0  0
   -3.6544   -6.0398   -0.2467 H   0  0  0  0  0  0  0  0  0  0  0  0
   -3.4533   -5.9349    1.5098 H   0  0  0  0  0  0  0  0  0  0  0  0
   -5.6115   -5.8048    0.8524 H   0  0  0  0  0  0  0  0  0  0  0  0
  1  2  1  0  0  0  0
  1  5  2  0  0  0  0
  2  6  2  0  0  0  0
  3  4  1  0  0  0  0
  3  7  2  0  0  0  0
  4  8  2  0  0  0  0
  5 11  1  0  0  0  0
  6  7  1  0  0  0  0
  6 11  1  0  0  0  0
  7 12  1  0  0  0  0
  8  9  1  0  0  0  0
  8 12  1  0  0  0  0
  9 10  1  0  0  0  0
  1 13  1  0  0  0  0
  2 14  1  0  0  0  0
  3 15  1  0  0  0  0
  4 16  1  0  0  0  0
  5 17  1  0  0  0  0
  9 18  1  0  0  0  0
  9 19  1  0  0  0  0
 10 20  1  0  0  0  0
M  END
$$$$
frag.vs.152
  -OEChem-01121112263D

 19 20  0     0  0  0  0  0  0999 V2000
    2.1349   -0.2824   -0.0332 C   0  0  0  0  0  0  0  0  0  0  0  0
    0.9716    0.4797   -0.0722 C   0  0  0  0  0  0  0  0  0  0  0  0
    3.3507    0.3712   -0.1283 C   0  0  0  0  0  0  0  0  0  0  0  0
    1.0807    1.8788   -0.2062 C   0  0  0  0  0  0  0  0  0  0  0  0
    0.1025    2.9220   -0.2763 C   0  0  0  0  0  0  0  0  0  0  0  0
    0.6691    4.1706   -0.4090 C   0  0  0  0  0  0  0  0  0  0  0  0
    2.3668    2.4019   -0.2910 C   0  0  0  0  0  0  0  0  0  0  0  0
    0.0365    5.4480   -0.5103 C   0  0  0  0  0  0  0  0  0  0  0  0
    3.5216    1.7043   -0.2578 N   0  0  0  0  0  0  0  0  0  0  0  0
   -1.2353    2.7068   -0.2190 N   0  0  0  0  0  0  0  0  0  0  0  0
    0.6106    6.5522   -0.6297 O   0  0  0  0  0  0  0  0  0  0  0  0
   -1.3325    5.3841   -0.4668 O   0  0  0  0  0  0  0  0  0  0  0  0
    2.3769    4.0997   -0.4501 S   0  0  0  0  0  0  0  0  0  0  0  0
    2.0884   -1.3608    0.0696 H   0  0  0  0  0  0  0  0  0  0  0  0
    0.0016   -0.0038   -0.0002 H   0  0  0  0  0  0  0  0  0  0  0  0
    4.2750   -0.1996   -0.1000 H   0  0  0  0  0  0  0  0  0  0  0  0
   -1.6303    1.7596   -0.1675 H   0  0  0  0  0  0  0  0  0  0  0  0
   -1.9122    3.4732   -0.3195 H   0  0  0  0  0  0  0  0  0  0  0  0
   -1.7764    6.2561   -0.5365 H   0  0  0  0  0  0  0  0  0  0  0  0
  1  2  1  0  0  0  0
  1  3  2  0  0  0  0
  2  4  2  0  0  0  0
  3  9  1  0  0  0  0
  4  5  1  0  0  0  0
  4  7  1  0  0  0  0
  5  6  2  0  0  0  0
  5 10  1  0  0  0  0
  6  8  1  0  0  0  0
  6 13  1  0  0  0  0
  7  9  2  0  0  0  0
  7 13  1  0  0  0  0
  8 11  2  0  0  0  0
  8 12  1  0  0  0  0
  1 14  1  0  0  0  0
  2 15  1  0  0  0  0
  3 16  1  0  0  0  0
 10 17  1  0  0  0  0
 10 18  1  0  0  0  0
 12 19  1  0  0  0  0
M  END
$$$$
frag.vs.153
  -OEChem-01121112263D

 24 25  0     0  0  0  0  0  0999 V2000
    5.8975   -2.5621   -1.4389 C   0  0  0  0  0  0  0  0  0  0  0  0
    1.8851   -1.0363   -0.1124 C   0  0  0  0  0  0  0  0  0  0  0  0
    2.8783   -1.6520    2.0022 C   0  0  0  0  0  0  0  0  0  0  0  0
    0.8066   -0.4630    0.5610 C   0  0  0  0  0  0  0  0  0  0  0  0
    1.7997   -1.0786    2.6757 C   0  0  0  0  0  0  0  0  0  0  0  0
    4.9347   -1.6328   -0.9495 C   0  0  0  0  0  0  0  0  0  0  0  0
    5.6986   -3.8278   -0.9332 C   0  0  0  0  0  0  0  0  0  0  0  0
    2.9210   -1.6309    0.6081 C   0  0  0  0  0  0  0  0  0  0  0  0
    0.7638   -0.4841    1.9551 C   0  0  0  0  0  0  0  0  0  0  0  0
    4.0364   -2.2239   -0.0883 C   0  0  0  0  0  0  0  0  0  0  0  0
   -0.3896    0.1284    2.6750 C   0  0  0  0  0  0  0  0  0  0  0  0
   -1.2981   -0.8611    3.1964 N   0  0  0  0  0  0  0  0  0  0  0  0
    4.3556   -3.8924    0.1272 S   0  0  0  0  0  0  0  0  0  0  0  0
    6.6950   -2.3153   -2.1274 H   0  0  0  0  0  0  0  0  0  0  0  0
    1.9038   -1.0120   -1.1995 H   0  0  0  0  0  0  0  0  0  0  0  0
    3.6782   -2.1113    2.5781 H   0  0  0  0  0  0  0  0  0  0  0  0
    0.0037   -0.0023   -0.0084 H   0  0  0  0  0  0  0  0  0  0  0  0
    1.7751   -1.0999    3.7620 H   0  0  0  0  0  0  0  0  0  0  0  0
    4.9084   -0.5847   -1.2217 H   0  0  0  0  0  0  0  0  0  0  0  0
    6.2774   -4.7179   -1.1361 H   0  0  0  0  0  0  0  0  0  0  0  0
   -0.0483    0.7413    3.5211 H   0  0  0  0  0  0  0  0  0  0  0  0
   -0.9693    0.7908    2.0174 H   0  0  0  0  0  0  0  0  0  0  0  0
   -2.2619   -0.6112    3.3411 H   0  0  0  0  0  0  0  0  0  0  0  0
   -0.9238   -1.7061    3.5944 H   0  0  0  0  0  0  0  0  0  0  0  0
  1  6  1  0  0  0  0
  1  7  2  0  0  0  0
  2  4  2  0  0  0  0
  2  8  1  0  0  0  0
  3  5  1  0  0  0  0
  3  8  2  0  0  0  0
  4  9  1  0  0  0  0
  5  9  2  0  0  0  0
  6 10  2  0  0  0  0
  7 13  1  0  0  0  0
  8 10  1  0  0  0  0
  9 11  1  0  0  0  0
 10 13  1  0  0  0  0
 11 12  1  0  0  0  0
  1 14  1  0  0  0  0
  2 15  1  0  0  0  0
  3 16  1  0  0  0  0
  4 17  1  0  0  0  0
  5 18  1  0  0  0  0
  6 19  1  0  0  0  0
  7 20  1  0  0  0  0
 11 21  1  0  0  0  0
 11 22  1  0  0  0  0
 12 23  1  0  0  0  0
 12 24  1  0  0  0  0
M  END
$$$$
frag.vs.154
  -OEChem-01121112263D

 22 23  0     0  0  0  0  0  0999 V2000
   -2.0245   -2.5581   -4.4456 C   0  0  0  0  0  0  0  0  0  0  0  0
    0.3423   -2.9904   -4.2247 C   0  0  0  0  0  0  0  0  0  0  0  0
   -2.1034   -3.5100   -5.4621 C   0  0  0  0  0  0  0  0  0  0  0  0
    0.2633   -3.9422   -5.2412 C   0  0  0  0  0  0  0  0  0  0  0  0
   -0.8016   -2.2983   -3.8269 C   0  0  0  0  0  0  0  0  0  0  0  0
   -0.9596   -4.2020   -5.8599 C   0  0  0  0  0  0  0  0  0  0  0  0
    0.8852   -0.6298   -0.6284 C   0  0  0  0  0  0  0  0  0  0  0  0
    1.6082   -0.1390   -1.8659 C   0  0  0  0  0  0  0  0  0  0  0  0
   -0.7159   -1.2670   -2.7245 C   0  0  0  0  0  0  0  0  0  0  0  0
   -1.0371   -5.1317   -6.8510 O   0  0  0  0  0  0  0  0  0  0  0  0
   -0.1978   -1.9901   -1.1319 S   0  0  0  0  0  0  0  0  0  0  0  0
    0.3701    0.1342   -3.1600 S   0  0  0  0  0  0  0  0  0  0  0  0
   -2.9206   -2.0237   -4.1421 H   0  0  0  0  0  0  0  0  0  0  0  0
    1.2994   -2.7943   -3.7483 H   0  0  0  0  0  0  0  0  0  0  0  0
   -3.0591   -3.7082   -5.9401 H   0  0  0  0  0  0  0  0  0  0  0  0
    1.1577   -4.4781   -5.5463 H   0  0  0  0  0  0  0  0  0  0  0  0
    1.5951   -0.9809    0.1264 H   0  0  0  0  0  0  0  0  0  0  0  0
    0.2810    0.1644   -0.1753 H   0  0  0  0  0  0  0  0  0  0  0  0
    2.1413    0.7945   -1.6623 H   0  0  0  0  0  0  0  0  0  0  0  0
    2.3425   -0.8716   -2.2187 H   0  0  0  0  0  0  0  0  0  0  0  0
   -1.7536   -0.8537   -2.5870 H   0  0  0  0  0  0  0  0  0  0  0  0
   -0.1644   -5.5241   -7.0131 H   0  0  0  0  0  0  0  0  0  0  0  0
  1  3  1  0  0  0  0
  1  5  2  0  0  0  0
  2  4  2  0  0  0  0
  2  5  1  0  0  0  0
  3  6  2  0  0  0  0
  4  6  1  0  0  0  0
  5  9  1  0  0  0  0
  6 10  1  0  0  0  0
  7  8  1  0  0  0  0
  7 11  1  0  0  0  0
  8 12  1  0  0  0  0
  9 11  1  0  0  0  0
  9 12  1  0  0  0  0
  1 13  1  0  0  0  0
  2 14  1  0  0  0  0
  3 15  1  0  0  0  0
  4 16  1  0  0  0  0
  7 17  1  0  0  0  0
  7 18  1  0  0  0  0
  8 19  1  0  0  0  0
  8 20  1  0  0  0  0
  9 21  1  0  0  0  0
 10 22  1  0  0  0  0
M  END
$$$$
frag.vs.155
  -OEChem-01121112263D

 30 32  0     1  0  0  0  0  0999 V2000
   -1.0826   -0.0372    0.1873 C   0  0  0  0  0  0  0  0  0  0  0  0
   -1.9381   -4.2643   -0.0573 C   0  0  0  0  0  0  0  0  0  0  0  0
   -2.1979   -1.9365   -0.9567 C   0  0  0  0  0  0  0  0  0  0  0  0
   -0.8107   -2.3444    1.0978 C   0  0  0  0  0  0  0  0  0  0  0  0
   -4.1430   -3.0869    0.1296 C   0  0  0  0  0  0  0  0  0  0  0  0
   -2.7581   -3.4912    2.1823 C   0  0  0  0  0  0  0  0  0  0  0  0
   -3.0178   -1.1623    1.2865 C   0  0  0  0  0  0  0  0  0  0  0  0
   -2.9030   -3.2902   -0.7563 C   0  0  2  0  0  0  0  0  0  0  0  0
   -1.5105   -3.6987    1.3088 C   0  0  1  0  0  0  0  0  0  0  0  0
   -1.7692   -1.3546    0.4053 C   0  0  0  0  0  0  0  0  0  0  0  0
   -3.7261   -2.5127    1.4955 C   0  0  0  0  0  0  0  0  0  0  0  0
   -0.8964    0.4856   -0.9015 O   0  0  0  0  0  0  0  0  0  0  0  0
   -0.6905    0.4996    1.3686 O   0  0  0  0  0  0  0  0  0  0  0  0
   -4.8856   -2.3343    2.2962 O   0  0  0  0  0  0  0  0  0  0  0  0
   -2.4230   -5.2389    0.0770 H   0  0  0  0  0  0  0  0  0  0  0  0
   -1.0551   -4.4318   -0.6862 H   0  0  0  0  0  0  0  0  0  0  0  0
   -1.3242   -2.0637   -1.6096 H   0  0  0  0  0  0  0  0  0  0  0  0
   -2.8689   -1.2392   -1.4754 H   0  0  0  0  0  0  0  0  0  0  0  0
   -0.4785   -1.9404    2.0632 H   0  0  0  0  0  0  0  0  0  0  0  0
    0.0965   -2.4845    0.4954 H   0  0  0  0  0  0  0  0  0  0  0  0
   -4.8578   -2.4131   -0.3604 H   0  0  0  0  0  0  0  0  0  0  0  0
   -4.6767   -4.0366    0.2661 H   0  0  0  0  0  0  0  0  0  0  0  0
   -3.2600   -4.4496    2.3677 H   0  0  0  0  0  0  0  0  0  0  0  0
   -2.4730   -3.1106    3.1717 H   0  0  0  0  0  0  0  0  0  0  0  0
   -2.7467   -0.7218    2.2558 H   0  0  0  0  0  0  0  0  0  0  0  0
   -3.7121   -0.4424    0.8318 H   0  0  0  0  0  0  0  0  0  0  0  0
   -3.2038   -3.6987   -1.7273 H   0  0  0  0  0  0  0  0  0  0  0  0
   -0.8252   -4.3973    1.8012 H   0  0  0  0  0  0  0  0  0  0  0  0
   -0.2375    1.3612    1.2472 H   0  0  0  0  0  0  0  0  0  0  0  0
   -4.5870   -1.9724    3.1465 H   0  0  0  0  0  0  0  0  0  0  0  0
  1 10  1  0  0  0  0
  1 12  2  0  0  0  0
  1 13  1  0  0  0  0
  2  8  1  0  0  0  0
  2  9  1  0  0  0  0
  3  8  1  0  0  0  0
  3 10  1  0  0  0  0
  4  9  1  0  0  0  0
  4 10  1  0  0  0  0
  5  8  1  0  0  0  0
  5 11  1  0  0  0  0
  6  9  1  0  0  0  0
  6 11  1  0  0  0  0
  7 10  1  0  0  0  0
  7 11  1  0  0  0  0
 11 14  1  0  0  0  0
  2 15  1  0  0  0  0
  2 16  1  0  0  0  0
  3 17  1  0  0  0  0
  3 18  1  0  0  0  0
  4 19  1  0  0  0  0
  4 20  1  0  0  0  0
  5 21  1  0  0  0  0
  5 22  1  0  0  0  0
  6 23  1  0  0  0  0
  6 24  1  0  0  0  0
  7 25  1  0  0  0  0
  7 26  1  0  0  0  0
  8 27  1  0  0  0  0
  9 28  1  0  0  0  0
 13 29  1  0  0  0  0
 14 30  1  0  0  0  0
M  END
$$$$
frag.vs.156
  -OEChem-01121112263D

 27 29  0     0  0  0  0  0  0999 V2000
    0.8702   -0.5523    0.3754 C   0  0  0  0  0  0  0  0  0  0  0  0
    2.1306    1.5848    0.7454 C   0  0  0  0  0  0  0  0  0  0  0  0
    0.7251    0.6226    2.5870 C   0  0  0  0  0  0  0  0  0  0  0  0
    3.3705   -0.5854    0.5554 C   0  0  0  0  0  0  0  0  0  0  0  0
    1.9631   -1.5488    2.3996 C   0  0  0  0  0  0  0  0  0  0  0  0
    3.2250    0.5877    2.7680 C   0  0  0  0  0  0  0  0  0  0  0  0
    2.1622    0.2156    0.0432 C   0  0  0  0  0  0  0  0  0  0  0  0
    0.7478   -0.7528    1.8967 C   0  0  0  0  0  0  0  0  0  0  0  0
    2.0168    1.3967    2.2687 C   0  0  0  0  0  0  0  0  0  0  0  0
    3.2610   -0.7865    2.0775 C   0  0  0  0  0  0  0  0  0  0  0  0
    4.3849   -1.5281    2.5289 O   0  0  0  0  0  0  0  0  0  0  0  0
    0.0000    0.0001   -0.0002 H   0  0  0  0  0  0  0  0  0  0  0  0
    0.8723   -1.5252   -0.1313 H   0  0  0  0  0  0  0  0  0  0  0  0
    3.0401    2.1494    0.5052 H   0  0  0  0  0  0  0  0  0  0  0  0
    1.2830    2.1756    0.3768 H   0  0  0  0  0  0  0  0  0  0  0  0
   -0.1474    1.1962    2.2506 H   0  0  0  0  0  0  0  0  0  0  0  0
    0.6236    0.4945    3.6718 H   0  0  0  0  0  0  0  0  0  0  0  0
    3.4275   -1.5580    0.0494 H   0  0  0  0  0  0  0  0  0  0  0  0
    4.3066   -0.0677    0.3089 H   0  0  0  0  0  0  0  0  0  0  0  0
    1.8847   -1.7242    3.4804 H   0  0  0  0  0  0  0  0  0  0  0  0
    1.9868   -2.5447    1.9388 H   0  0  0  0  0  0  0  0  0  0  0  0
    4.1581    1.1321    2.5731 H   0  0  0  0  0  0  0  0  0  0  0  0
    3.1774    0.4634    3.8577 H   0  0  0  0  0  0  0  0  0  0  0  0
    2.2424    0.3560   -1.0403 H   0  0  0  0  0  0  0  0  0  0  0  0
   -0.1741   -1.2985    2.1264 H   0  0  0  0  0  0  0  0  0  0  0  0
    1.9948    2.3745    2.7626 H   0  0  0  0  0  0  0  0  0  0  0  0
    4.2836   -1.6359    3.4888 H   0  0  0  0  0  0  0  0  0  0  0  0
  1  7  1  0  0  0  0
  1  8  1  0  0  0  0
  2  7  1  0  0  0  0
  2  9  1  0  0  0  0
  3  8  1  0  0  0  0
  3  9  1  0  0  0  0
  4  7  1  0  0  0  0
  4 10  1  0  0  0  0
  5  8  1  0  0  0  0
  5 10  1  0  0  0  0
  6  9  1  0  0  0  0
  6 10  1  0  0  0  0
 10 11  1  0  0  0  0
  1 12  1  0  0  0  0
  1 13  1  0  0  0  0
  2 14  1  0  0  0  0
  2 15  1  0  0  0  0
  3 16  1  0  0  0  0
  3 17  1  0  0  0  0
  4 18  1  0  0  0  0
  4 19  1  0  0  0  0
  5 20  1  0  0  0  0
  5 21  1  0  0  0  0
  6 22  1  0  0  0  0
  6 23  1  0  0  0  0
  7 24  1  0  0  0  0
  8 25  1  0  0  0  0
  9 26  1  0  0  0  0
 11 27  1  0  0  0  0
M  END
$$$$
frag.vs.157_0
  -OEChem-01121112263D

 38 40  0     1  0  0  0  0  0999 V2000
   -0.7832   -0.3865   -6.0976 C   0  0  0  0  0  0  0  0  0  0  0  0
   -1.3651    0.7549   -5.5463 C   0  0  0  0  0  0  0  0  0  0  0  0
   -0.0709   -1.2683   -5.2846 C   0  0  0  0  0  0  0  0  0  0  0  0
   -1.2347    1.0148   -4.1821 C   0  0  0  0  0  0  0  0  0  0  0  0
    0.0595   -1.0085   -3.9204 C   0  0  0  0  0  0  0  0  0  0  0  0
   -0.5224    0.1331   -3.3691 C   0  0  0  0  0  0  0  0  0  0  0  0
   -1.4636   -0.4673    2.4449 C   0  0  0  0  0  0  0  0  0  0  0  0
   -0.5796   -1.7133    2.4956 C   0  0  0  0  0  0  0  0  0  0  0  0
   -1.5259   -0.0536    0.9753 C   0  0  0  0  0  0  0  0  0  0  0  0
   -0.1724   -1.9961    1.0512 C   0  0  0  0  0  0  0  0  0  0  0  0
    0.8782    1.2554   -1.6102 C   0  0  0  0  0  0  0  0  0  0  0  0
    1.0138    0.2097    0.6605 C   0  0  0  0  0  0  0  0  0  0  0  0
   -0.3796    0.4158   -1.8820 C   0  0  2  0  0  0  0  0  0  0  0  0
    1.0521    1.5232   -0.1184 C   0  0  1  0  0  0  0  0  0  0  0  0
   -0.2448   -0.6302    0.3441 C   0  0  0  0  0  0  0  0  0  0  0  0
   -0.3605   -0.8346   -1.1060 N   0  0  0  0  0  0  0  0  0  0  0  0
    2.3047    2.1579    0.1141 O   0  0  0  0  0  0  0  0  0  0  0  0
   -0.8860   -0.5894   -7.1596 H   0  0  0  0  0  0  0  0  0  0  0  0
   -1.9207    1.4411   -6.1789 H   0  0  0  0  0  0  0  0  0  0  0  0
    0.3814   -2.1577   -5.7133 H   0  0  0  0  0  0  0  0  0  0  0  0
   -1.6913    1.9068   -3.7613 H   0  0  0  0  0  0  0  0  0  0  0  0
    0.6164   -1.7010   -3.2948 H   0  0  0  0  0  0  0  0  0  0  0  0
   -2.4646   -0.6636    2.8429 H   0  0  0  0  0  0  0  0  0  0  0  0
   -1.0220    0.3307    3.0526 H   0  0  0  0  0  0  0  0  0  0  0  0
    0.3042   -1.5208    3.1144 H   0  0  0  0  0  0  0  0  0  0  0  0
   -1.1056   -2.5670    2.9350 H   0  0  0  0  0  0  0  0  0  0  0  0
   -2.4169   -0.5076    0.5209 H   0  0  0  0  0  0  0  0  0  0  0  0
   -1.6273    1.0301    0.8650 H   0  0  0  0  0  0  0  0  0  0  0  0
    0.8156   -2.4646    0.9893 H   0  0  0  0  0  0  0  0  0  0  0  0
   -0.8936   -2.7009    0.6155 H   0  0  0  0  0  0  0  0  0  0  0  0
    1.7745    0.7504   -1.9992 H   0  0  0  0  0  0  0  0  0  0  0  0
    0.8299    2.2101   -2.1506 H   0  0  0  0  0  0  0  0  0  0  0  0
    1.9172   -0.3694    0.4204 H   0  0  0  0  0  0  0  0  0  0  0  0
    1.0971    0.4296    1.7318 H   0  0  0  0  0  0  0  0  0  0  0  0
   -1.2777    1.0048   -1.5964 H   0  0  0  0  0  0  0  0  0  0  0  0
    0.2675    2.2004    0.2354 H   0  0  0  0  0  0  0  0  0  0  0  0
   -1.2044   -1.3709   -1.3090 H   0  0  0  0  0  0  0  0  0  0  0  0
    2.2918    2.9899   -0.3848 H   0  0  0  0  0  0  0  0  0  0  0  0
  1  2  1  0  0  0  0
  1  3  2  0  0  0  0
  2  4  2  0  0  0  0
  3  5  1  0  0  0  0
  4  6  1  0  0  0  0
  5  6  2  0  0  0  0
  6 13  1  0  0  0  0
  7  8  1  0  0  0  0
  7  9  1  0  0  0  0
  8 10  1  0  0  0  0
  9 15  1  0  0  0  0
 10 15  1  0  0  0  0
 11 13  1  0  0  0  0
 11 14  1  0  0  0  0
 12 14  1  0  0  0  0
 12 15  1  0  0  0  0
 13 16  1  0  0  0  0
 14 17  1  0  0  0  0
 15 16  1  0  0  0  0
  1 18  1  0  0  0  0
  2 19  1  0  0  0  0
  3 20  1  0  0  0  0
  4 21  1  0  0  0  0
  5 22  1  0  0  0  0
  7 23  1  0  0  0  0
  7 24  1  0  0  0  0
  8 25  1  0  0  0  0
  8 26  1  0  0  0  0
  9 27  1  0  0  0  0
  9 28  1  0  0  0  0
 10 29  1  0  0  0  0
 10 30  1  0  0  0  0
 11 31  1  0  0  0  0
 11 32  1  0  0  0  0
 12 33  1  0  0  0  0
 12 34  1  0  0  0  0
 13 35  1  0  0  0  0
 14 36  1  0  0  0  0
 16 37  1  0  0  0  0
 17 38  1  0  0  0  0
M  END
$$$$
frag.vs.157_1
  -OEChem-01121112263D

 38 40  0     1  0  0  0  0  0999 V2000
    5.0683   -2.1761   -2.0743 C   0  0  0  0  0  0  0  0  0  0  0  0
    4.9227   -1.3980   -0.9259 C   0  0  0  0  0  0  0  0  0  0  0  0
    3.9398   -2.6254   -2.7601 C   0  0  0  0  0  0  0  0  0  0  0  0
    3.6486   -1.0691   -0.4632 C   0  0  0  0  0  0  0  0  0  0  0  0
    2.6656   -2.2965   -2.2974 C   0  0  0  0  0  0  0  0  0  0  0  0
    2.5200   -1.5183   -1.1490 C   0  0  0  0  0  0  0  0  0  0  0  0
   -0.6313    2.3427   -1.2504 C   0  0  0  0  0  0  0  0  0  0  0  0
    0.0542    2.9958   -0.0509 C   0  0  0  0  0  0  0  0  0  0  0  0
   -1.1483    0.9940   -0.7506 C   0  0  0  0  0  0  0  0  0  0  0  0
   -0.0729    1.9934    1.0951 C   0  0  0  0  0  0  0  0  0  0  0  0
    0.5933   -2.2114    0.3461 C   0  0  0  0  0  0  0  0  0  0  0  0
   -0.8117   -0.4120    1.3949 C   0  0  0  0  0  0  0  0  0  0  0  0
    1.1297   -1.1601   -0.6446 C   0  0  1  0  0  0  0  0  0  0  0  0
   -0.7993   -1.8430    0.8554 C   0  0  1  0  0  0  0  0  0  0  0  0
   -0.2145    0.6156    0.4149 C   0  0  0  0  0  0  0  0  0  0  0  0
    1.1189    0.1899   -0.0556 N   0  0  0  0  0  0  0  0  0  0  0  0
   -1.7380   -1.9865   -0.2054 O   0  0  0  0  0  0  0  0  0  0  0  0
    6.0605   -2.4310   -2.4352 H   0  0  0  0  0  0  0  0  0  0  0  0
    5.8013   -1.0472   -0.3924 H   0  0  0  0  0  0  0  0  0  0  0  0
    4.0527   -3.2303   -3.6549 H   0  0  0  0  0  0  0  0  0  0  0  0
    3.5448   -0.4624    0.4326 H   0  0  0  0  0  0  0  0  0  0  0  0
    1.7921   -2.6510   -2.8381 H   0  0  0  0  0  0  0  0  0  0  0  0
   -1.4461    2.9608   -1.6406 H   0  0  0  0  0  0  0  0  0  0  0  0
    0.0912    2.2008   -2.0623 H   0  0  0  0  0  0  0  0  0  0  0  0
    1.1081    3.1899   -0.2809 H   0  0  0  0  0  0  0  0  0  0  0  0
   -0.4065    3.9545    0.2083 H   0  0  0  0  0  0  0  0  0  0  0  0
   -2.1772    1.1165   -0.3874 H   0  0  0  0  0  0  0  0  0  0  0  0
   -1.1829    0.2602   -1.5606 H   0  0  0  0  0  0  0  0  0  0  0  0
    0.7772    2.0537    1.7840 H   0  0  0  0  0  0  0  0  0  0  0  0
   -0.9745    2.2257    1.6775 H   0  0  0  0  0  0  0  0  0  0  0  0
    0.5597   -3.1904   -0.1491 H   0  0  0  0  0  0  0  0  0  0  0  0
    1.2770   -2.3059    1.2008 H   0  0  0  0  0  0  0  0  0  0  0  0
   -1.8397   -0.1252    1.6497 H   0  0  0  0  0  0  0  0  0  0  0  0
   -0.2355   -0.3914    2.3300 H   0  0  0  0  0  0  0  0  0  0  0  0
    0.4885   -1.1568   -1.5550 H   0  0  0  0  0  0  0  0  0  0  0  0
   -1.0954   -2.5422    1.6460 H   0  0  0  0  0  0  0  0  0  0  0  0
    1.7590    0.2019    0.7401 H   0  0  0  0  0  0  0  0  0  0  0  0
   -1.7034   -2.9155   -0.4828 H   0  0  0  0  0  0  0  0  0  0  0  0
  1  2  1  0  0  0  0
  1  3  2  0  0  0  0
  2  4  2  0  0  0  0
  3  5  1  0  0  0  0
  4  6  1  0  0  0  0
  5  6  2  0  0  0  0
  6 13  1  0  0  0  0
  7  8  1  0  0  0  0
  7  9  1  0  0  0  0
  8 10  1  0  0  0  0
  9 15  1  0  0  0  0
 10 15  1  0  0  0  0
 11 13  1  0  0  0  0
 11 14  1  0  0  0  0
 12 14  1  0  0  0  0
 12 15  1  0  0  0  0
 13 16  1  0  0  0  0
 14 17  1  0  0  0  0
 15 16  1  0  0  0  0
  1 18  1  0  0  0  0
  2 19  1  0  0  0  0
  3 20  1  0  0  0  0
  4 21  1  0  0  0  0
  5 22  1  0  0  0  0
  7 23  1  0  0  0  0
  7 24  1  0  0  0  0
  8 25  1  0  0  0  0
  8 26  1  0  0  0  0
  9 27  1  0  0  0  0
  9 28  1  0  0  0  0
 10 29  1  0  0  0  0
 10 30  1  0  0  0  0
 11 31  1  0  0  0  0
 11 32  1  0  0  0  0
 12 33  1  0  0  0  0
 12 34  1  0  0  0  0
 13 35  1  0  0  0  0
 14 36  1  0  0  0  0
 16 37  1  0  0  0  0
 17 38  1  0  0  0  0
M  END
$$$$
frag.vs.157_2
  -OEChem-01121112263D

 38 40  0     1  0  0  0  0  0999 V2000
   -1.1819   -0.2116   -6.0345 C   0  0  0  0  0  0  0  0  0  0  0  0
   -1.3752    1.0456   -5.4619 C   0  0  0  0  0  0  0  0  0  0  0  0
   -0.6774   -1.2589   -5.2636 C   0  0  0  0  0  0  0  0  0  0  0  0
   -1.0639    1.2554   -4.1186 C   0  0  0  0  0  0  0  0  0  0  0  0
   -0.3660   -1.0491   -3.9203 C   0  0  0  0  0  0  0  0  0  0  0  0
   -0.5593    0.2081   -3.3477 C   0  0  0  0  0  0  0  0  0  0  0  0
   -1.2311   -0.1712    2.5198 C   0  0  0  0  0  0  0  0  0  0  0  0
   -0.6569   -1.5874    2.5293 C   0  0  0  0  0  0  0  0  0  0  0  0
   -1.2939    0.2453    1.0511 C   0  0  0  0  0  0  0  0  0  0  0  0
   -0.4235   -1.9509    1.0645 C   0  0  0  0  0  0  0  0  0  0  0  0
    1.2433    0.8919   -1.7337 C   0  0  0  0  0  0  0  0  0  0  0  0
    1.2338   -0.0953    0.5814 C   0  0  0  0  0  0  0  0  0  0  0  0
   -0.2193    0.4363   -1.8827 C   0  0  2  0  0  0  0  0  0  0  0  0
    1.6185    1.1160   -0.2710 C   0  0  2  0  0  0  0  0  0  0  0  0
   -0.2151   -0.6007    0.3477 C   0  0  0  0  0  0  0  0  0  0  0  0
   -0.4712   -0.7745   -1.0874 N   0  0  0  0  0  0  0  0  0  0  0  0
    0.9749    2.2824    0.2288 O   0  0  0  0  0  0  0  0  0  0  0  0
   -1.4257   -0.3751   -7.0802 H   0  0  0  0  0  0  0  0  0  0  0  0
   -1.7691    1.8609   -6.0617 H   0  0  0  0  0  0  0  0  0  0  0  0
   -0.5278   -2.2381   -5.7088 H   0  0  0  0  0  0  0  0  0  0  0  0
   -1.2175    2.2384   -3.6810 H   0  0  0  0  0  0  0  0  0  0  0  0
    0.0267   -1.8709   -3.3274 H   0  0  0  0  0  0  0  0  0  0  0  0
   -2.2216   -0.1324    2.9846 H   0  0  0  0  0  0  0  0  0  0  0  0
   -0.5780    0.5029    3.0857 H   0  0  0  0  0  0  0  0  0  0  0  0
    0.2868   -1.6058    3.0866 H   0  0  0  0  0  0  0  0  0  0  0  0
   -1.3350   -2.2984    3.0120 H   0  0  0  0  0  0  0  0  0  0  0  0
   -2.2905   -0.0047    0.6617 H   0  0  0  0  0  0  0  0  0  0  0  0
   -1.1721    1.3241    0.9320 H   0  0  0  0  0  0  0  0  0  0  0  0
    0.4177   -2.6419    0.9439 H   0  0  0  0  0  0  0  0  0  0  0  0
   -1.3190   -2.4612    0.6838 H   0  0  0  0  0  0  0  0  0  0  0  0
    1.9165    0.1386   -2.1656 H   0  0  0  0  0  0  0  0  0  0  0  0
    1.3940    1.8197   -2.3008 H   0  0  0  0  0  0  0  0  0  0  0  0
    1.9324   -0.9078    0.3377 H   0  0  0  0  0  0  0  0  0  0  0  0
    1.3910    0.1467    1.6389 H   0  0  0  0  0  0  0  0  0  0  0  0
   -0.8961    1.2477   -1.5377 H   0  0  0  0  0  0  0  0  0  0  0  0
    2.6983    1.2890   -0.1911 H   0  0  0  0  0  0  0  0  0  0  0  0
   -1.4352   -1.0777   -1.2281 H   0  0  0  0  0  0  0  0  0  0  0  0
    1.2794    3.0243   -0.3177 H   0  0  0  0  0  0  0  0  0  0  0  0
  1  2  1  0  0  0  0
  1  3  2  0  0  0  0
  2  4  2  0  0  0  0
  3  5  1  0  0  0  0
  4  6  1  0  0  0  0
  5  6  2  0  0  0  0
  6 13  1  0  0  0  0
  7  8  1  0  0  0  0
  7  9  1  0  0  0  0
  8 10  1  0  0  0  0
  9 15  1  0  0  0  0
 10 15  1  0  0  0  0
 11 13  1  0  0  0  0
 11 14  1  0  0  0  0
 12 14  1  0  0  0  0
 12 15  1  0  0  0  0
 13 16  1  0  0  0  0
 14 17  1  0  0  0  0
 15 16  1  0  0  0  0
  1 18  1  0  0  0  0
  2 19  1  0  0  0  0
  3 20  1  0  0  0  0
  4 21  1  0  0  0  0
  5 22  1  0  0  0  0
  7 23  1  0  0  0  0
  7 24  1  0  0  0  0
  8 25  1  0  0  0  0
  8 26  1  0  0  0  0
  9 27  1  0  0  0  0
  9 28  1  0  0  0  0
 10 29  1  0  0  0  0
 10 30  1  0  0  0  0
 11 31  1  0  0  0  0
 11 32  1  0  0  0  0
 12 33  1  0  0  0  0
 12 34  1  0  0  0  0
 13 35  1  0  0  0  0
 14 36  1  0  0  0  0
 16 37  1  0  0  0  0
 17 38  1  0  0  0  0
M  END
$$$$
frag.vs.157_3
  -OEChem-01121112263D

 38 40  0     1  0  0  0  0  0999 V2000
    5.3276   -1.3626   -2.1358 C   0  0  0  0  0  0  0  0  0  0  0  0
    5.0305   -0.9013   -0.8534 C   0  0  0  0  0  0  0  0  0  0  0  0
    4.2963   -1.6500   -3.0300 C   0  0  0  0  0  0  0  0  0  0  0  0
    3.7020   -0.7274   -0.4652 C   0  0  0  0  0  0  0  0  0  0  0  0
    2.9679   -1.4761   -2.6417 C   0  0  0  0  0  0  0  0  0  0  0  0
    2.6707   -1.0148   -1.3593 C   0  0  0  0  0  0  0  0  0  0  0  0
   -0.6916    2.6329   -0.8664 C   0  0  0  0  0  0  0  0  0  0  0  0
   -0.1542    3.0188    0.5121 C   0  0  0  0  0  0  0  0  0  0  0  0
   -1.1682    1.1873   -0.7348 C   0  0  0  0  0  0  0  0  0  0  0  0
   -0.3025    1.7702    1.3815 C   0  0  0  0  0  0  0  0  0  0  0  0
    0.6400   -2.0993   -0.3023 C   0  0  0  0  0  0  0  0  0  0  0  0
   -0.9182   -0.6653    1.0303 C   0  0  0  0  0  0  0  0  0  0  0  0
    1.2220   -0.8257   -0.9365 C   0  0  1  0  0  0  0  0  0  0  0  0
   -0.8120   -1.8856    0.1179 C   0  0  2  0  0  0  0  0  0  0  0  0
   -0.3053    0.5889    0.3919 C   0  0  0  0  0  0  0  0  0  0  0  0
    1.0849    0.3371   -0.0414 N   0  0  0  0  0  0  0  0  0  0  0  0
   -1.2656   -3.0447    0.8070 O   0  0  0  0  0  0  0  0  0  0  0  0
    6.3620   -1.4966   -2.4384 H   0  0  0  0  0  0  0  0  0  0  0  0
    5.8334   -0.6764   -0.1574 H   0  0  0  0  0  0  0  0  0  0  0  0
    4.5272   -2.0081   -4.0288 H   0  0  0  0  0  0  0  0  0  0  0  0
    3.4800   -0.3677    0.5361 H   0  0  0  0  0  0  0  0  0  0  0  0
    2.1709   -1.7027   -3.3450 H   0  0  0  0  0  0  0  0  0  0  0  0
   -1.5047    3.2927   -1.1857 H   0  0  0  0  0  0  0  0  0  0  0  0
    0.1064    2.7090   -1.6139 H   0  0  0  0  0  0  0  0  0  0  0  0
    0.8979    3.3159    0.4357 H   0  0  0  0  0  0  0  0  0  0  0  0
   -0.7031    3.8643    0.9392 H   0  0  0  0  0  0  0  0  0  0  0  0
   -2.2268    1.1840   -0.4434 H   0  0  0  0  0  0  0  0  0  0  0  0
   -1.1011    0.6534   -1.6871 H   0  0  0  0  0  0  0  0  0  0  0  0
    0.4886    1.7042    2.1369 H   0  0  0  0  0  0  0  0  0  0  0  0
   -1.2575    1.8188    1.9216 H   0  0  0  0  0  0  0  0  0  0  0  0
    0.6985   -2.9420   -1.0039 H   0  0  0  0  0  0  0  0  0  0  0  0
    1.2352   -2.4078    0.5693 H   0  0  0  0  0  0  0  0  0  0  0  0
   -1.9708   -0.4976    1.2926 H   0  0  0  0  0  0  0  0  0  0  0  0
   -0.4175   -0.8851    1.9840 H   0  0  0  0  0  0  0  0  0  0  0  0
    0.6732   -0.6115   -1.8814 H   0  0  0  0  0  0  0  0  0  0  0  0
   -1.4410   -1.7572   -0.7705 H   0  0  0  0  0  0  0  0  0  0  0  0
    1.6544    0.1747    0.7908 H   0  0  0  0  0  0  0  0  0  0  0  0
   -2.1876   -2.8761    1.0588 H   0  0  0  0  0  0  0  0  0  0  0  0
  1  2  1  0  0  0  0
  1  3  2  0  0  0  0
  2  4  2  0  0  0  0
  3  5  1  0  0  0  0
  4  6  1  0  0  0  0
  5  6  2  0  0  0  0
  6 13  1  0  0  0  0
  7  8  1  0  0  0  0
  7  9  1  0  0  0  0
  8 10  1  0  0  0  0
  9 15  1  0  0  0  0
 10 15  1  0  0  0  0
 11 13  1  0  0  0  0
 11 14  1  0  0  0  0
 12 14  1  0  0  0  0
 12 15  1  0  0  0  0
 13 16  1  0  0  0  0
 14 17  1  0  0  0  0
 15 16  1  0  0  0  0
  1 18  1  0  0  0  0
  2 19  1  0  0  0  0
  3 20  1  0  0  0  0
  4 21  1  0  0  0  0
  5 22  1  0  0  0  0
  7 23  1  0  0  0  0
  7 24  1  0  0  0  0
  8 25  1  0  0  0  0
  8 26  1  0  0  0  0
  9 27  1  0  0  0  0
  9 28  1  0  0  0  0
 10 29  1  0  0  0  0
 10 30  1  0  0  0  0
 11 31  1  0  0  0  0
 11 32  1  0  0  0  0
 12 33  1  0  0  0  0
 12 34  1  0  0  0  0
 13 35  1  0  0  0  0
 14 36  1  0  0  0  0
 16 37  1  0  0  0  0
 17 38  1  0  0  0  0
M  END
$$$$
frag.vs.158
  -OEChem-01121112263D

 25 26  0     0  0  0  0  0  0999 V2000
   -2.2214    1.9015   -1.7491 C   0  0  0  0  0  0  0  0  0  0  0  0
   -1.9472   -0.6489   -0.6463 C   0  0  0  0  0  0  0  0  0  0  0  0
   -3.2759    0.9886   -1.8840 C   0  0  0  0  0  0  0  0  0  0  0  0
   -3.1109   -0.2786   -1.3229 C   0  0  0  0  0  0  0  0  0  0  0  0
   -0.9119    0.2717   -0.5232 C   0  0  0  0  0  0  0  0  0  0  0  0
   -1.0486    1.5450   -1.0736 C   0  0  0  0  0  0  0  0  0  0  0  0
   -5.4809    0.3457   -2.6502 C   0  0  0  0  0  0  0  0  0  0  0  0
   -4.5346    1.2923   -2.5783 C   0  0  0  0  0  0  0  0  0  0  0  0
   -5.3220   -0.9955   -2.0633 C   0  0  0  0  0  0  0  0  0  0  0  0
   -4.1633    4.0162   -5.0113 C   0  0  0  0  0  0  0  0  0  0  0  0
   -4.7442    2.6454   -3.1929 C   0  0  0  0  0  0  0  0  0  0  0  0
   -6.2104   -1.8362   -2.1484 O   0  0  0  0  0  0  0  0  0  0  0  0
   -4.1244   -1.2535   -1.4146 O   0  0  0  0  0  0  0  0  0  0  0  0
    0.2207   -0.0970    0.1386 O   0  0  0  0  0  0  0  0  0  0  0  0
   -3.9963    2.7465   -4.3898 O   0  0  0  0  0  0  0  0  0  0  0  0
    0.2201    2.7077   -0.9360 Cl  0  0  0  0  0  0  0  0  0  0  0  0
   -2.3015    2.9016   -2.1694 H   0  0  0  0  0  0  0  0  0  0  0  0
   -1.8524   -1.6441   -0.2208 H   0  0  0  0  0  0  0  0  0  0  0  0
   -6.4233    0.5354   -3.1554 H   0  0  0  0  0  0  0  0  0  0  0  0
   -3.5717    4.0542   -5.9292 H   0  0  0  0  0  0  0  0  0  0  0  0
   -3.8419    4.8038   -4.3251 H   0  0  0  0  0  0  0  0  0  0  0  0
   -5.2191    4.1565   -5.2550 H   0  0  0  0  0  0  0  0  0  0  0  0
   -4.4243    3.4227   -2.5012 H   0  0  0  0  0  0  0  0  0  0  0  0
   -5.7996    2.7778   -3.4234 H   0  0  0  0  0  0  0  0  0  0  0  0
    0.1423   -1.0113    0.4528 H   0  0  0  0  0  0  0  0  0  0  0  0
  1  3  2  0  0  0  0
  1  6  1  0  0  0  0
  2  4  2  0  0  0  0
  2  5  1  0  0  0  0
  3  4  1  0  0  0  0
  3  8  1  0  0  0  0
  4 13  1  0  0  0  0
  5  6  2  0  0  0  0
  5 14  1  0  0  0  0
  6 16  1  0  0  0  0
  7  8  2  0  0  0  0
  7  9  1  0  0  0  0
  8 11  1  0  0  0  0
  9 12  2  0  0  0  0
  9 13  1  0  0  0  0
 10 15  1  0  0  0  0
 11 15  1  0  0  0  0
  1 17  1  0  0  0  0
  2 18  1  0  0  0  0
  7 19  1  0  0  0  0
 10 20  1  0  0  0  0
 10 21  1  0  0  0  0
 10 22  1  0  0  0  0
 11 23  1  0  0  0  0
 11 24  1  0  0  0  0
 14 25  1  0  0  0  0
M  END
$$$$
frag.vs.159
  -OEChem-01121112263D

 22 23  0     0  0  0  0  0  0999 V2000
    0.1850    1.2223   -2.8400 C   0  0  0  0  0  0  0  0  0  0  0  0
   -0.4742    0.1933   -2.1818 C   0  0  0  0  0  0  0  0  0  0  0  0
   -0.5162   -0.3092   -0.8970 C   0  0  0  0  0  0  0  0  0  0  0  0
   -0.2160    1.2066   -4.1745 C   0  0  0  0  0  0  0  0  0  0  0  0
   -1.2990   -0.5400   -2.9329 C   0  0  0  0  0  0  0  0  0  0  0  0
    0.2001    0.1327    0.3089 C   0  0  0  0  0  0  0  0  0  0  0  0
   -2.7817   -2.5061   -2.4438 C   0  0  0  0  0  0  0  0  0  0  0  0
    0.2039    2.1019   -5.2753 C   0  0  0  0  0  0  0  0  0  0  0  0
   -1.3648   -1.3556   -0.8393 N   0  0  0  0  0  0  0  0  0  0  0  0
   -1.8321   -1.4719   -2.1155 N   0  0  0  0  0  0  0  0  0  0  0  0
    1.1114    1.4173   -6.1366 O   0  0  0  0  0  0  0  0  0  0  0  0
   -1.3701   -0.0677   -4.5194 S   0  0  0  0  0  0  0  0  0  0  0  0
    0.8900    1.9282   -2.4220 H   0  0  0  0  0  0  0  0  0  0  0  0
   -0.3769    0.8933    0.8640 H   0  0  0  0  0  0  0  0  0  0  0  0
    0.4031   -0.7014    1.0053 H   0  0  0  0  0  0  0  0  0  0  0  0
    1.1863    0.5732    0.0729 H   0  0  0  0  0  0  0  0  0  0  0  0
   -2.2214   -3.3944   -2.7473 H   0  0  0  0  0  0  0  0  0  0  0  0
   -3.3995   -2.7244   -1.5683 H   0  0  0  0  0  0  0  0  0  0  0  0
   -3.4243   -2.1612   -3.2587 H   0  0  0  0  0  0  0  0  0  0  0  0
   -0.6533    2.4412   -5.8808 H   0  0  0  0  0  0  0  0  0  0  0  0
    0.7053    3.0080   -4.8962 H   0  0  0  0  0  0  0  0  0  0  0  0
    1.3535    2.0441   -6.8354 H   0  0  0  0  0  0  0  0  0  0  0  0
  1  2  1  0  0  0  0
  1  4  2  0  0  0  0
  2  3  1  0  0  0  0
  2  5  2  0  0  0  0
  3  6  1  0  0  0  0
  3  9  2  0  0  0  0
  4  8  1  0  0  0  0
  4 12  1  0  0  0  0
  5 10  1  0  0  0  0
  5 12  1  0  0  0  0
  7 10  1  0  0  0  0
  8 11  1  0  0  0  0
  9 10  1  0  0  0  0
  1 13  1  0  0  0  0
  6 14  1  0  0  0  0
  6 15  1  0  0  0  0
  6 16  1  0  0  0  0
  7 17  1  0  0  0  0
  7 18  1  0  0  0  0
  7 19  1  0  0  0  0
  8 20  1  0  0  0  0
  8 21  1  0  0  0  0
 11 22  1  0  0  0  0
M  END
$$$$
frag.vs.160
  -OEChem-01121112263D

 25 26  0     1  0  0  0  0  0999 V2000
    2.0735    0.3987   -0.4145 C   0  0  0  0  0  0  0  0  0  0  0  0
    2.9890    1.2391   -1.0574 C   0  0  0  0  0  0  0  0  0  0  0  0
    0.2589    1.7605   -1.2098 C   0  0  0  0  0  0  0  0  0  0  0  0
    0.7093    0.6563   -0.4950 C   0  0  0  0  0  0  0  0  0  0  0  0
    2.5661    2.3570   -1.7968 C   0  0  0  0  0  0  0  0  0  0  0  0
    1.1784    2.6076   -1.8378 C   0  0  0  0  0  0  0  0  0  0  0  0
   -0.2401   -0.2227    0.1682 C   0  0  0  0  0  0  0  0  0  0  0  0
    2.8504    4.1513   -3.3917 C   0  0  0  0  0  0  0  0  0  0  0  0
    1.5861    4.7139   -2.7661 C   0  0  0  0  0  0  0  0  0  0  0  0
    4.8680    2.9128   -2.5695 C   0  0  0  0  0  0  0  0  0  0  0  0
    3.4485    3.2005   -2.4656 N   0  0  2  0  0  0  0  0  0  0  0  0
   -1.4682   -0.0868    0.1610 O   0  0  0  0  0  0  0  0  0  0  0  0
    0.6354    3.6759   -2.5158 O   0  0  0  0  0  0  0  0  0  0  0  0
    0.3697   -1.2494    0.8221 O   0  0  0  0  0  0  0  0  0  0  0  0
    2.4421   -0.4591    0.1427 H   0  0  0  0  0  0  0  0  0  0  0  0
    4.0438    0.9891   -0.9725 H   0  0  0  0  0  0  0  0  0  0  0  0
   -0.8057    1.9743   -1.2743 H   0  0  0  0  0  0  0  0  0  0  0  0
    2.6181    3.6397   -4.3338 H   0  0  0  0  0  0  0  0  0  0  0  0
    3.5443    4.9704   -3.6108 H   0  0  0  0  0  0  0  0  0  0  0  0
    1.7950    5.2437   -1.8277 H   0  0  0  0  0  0  0  0  0  0  0  0
    1.1186    5.4292   -3.4509 H   0  0  0  0  0  0  0  0  0  0  0  0
    5.3711    3.7025   -3.1334 H   0  0  0  0  0  0  0  0  0  0  0  0
    5.0239    1.9600   -3.0827 H   0  0  0  0  0  0  0  0  0  0  0  0
    5.3151    2.8518   -1.5737 H   0  0  0  0  0  0  0  0  0  0  0  0
   -0.2628   -1.8491    1.2724 H   0  0  0  0  0  0  0  0  0  0  0  0
  1  2  1  0  0  0  0
  1  4  2  0  0  0  0
  2  5  2  0  0  0  0
  3  4  1  0  0  0  0
  3  6  2  0  0  0  0
  4  7  1  0  0  0  0
  5  6  1  0  0  0  0
  5 11  1  0  0  0  0
  6 13  1  0  0  0  0
  7 12  2  0  0  0  0
  7 14  1  0  0  0  0
  8  9  1  0  0  0  0
  8 11  1  0  0  0  0
  9 13  1  0  0  0  0
 10 11  1  0  0  0  0
  1 15  1  0  0  0  0
  2 16  1  0  0  0  0
  3 17  1  0  0  0  0
  8 18  1  0  0  0  0
  8 19  1  0  0  0  0
  9 20  1  0  0  0  0
  9 21  1  0  0  0  0
 10 22  1  0  0  0  0
 10 23  1  0  0  0  0
 10 24  1  0  0  0  0
 14 25  1  0  0  0  0
M  END
$$$$
frag.vs.161
  -OEChem-01121112263D

 21 22  0     0  0  0  0  0  0999 V2000
    1.3695    1.6097   -0.4375 C   0  0  0  0  0  0  0  0  0  0  0  0
    0.0958    1.0278   -0.3394 C   0  0  0  0  0  0  0  0  0  0  0  0
    1.5176    2.9310   -0.8646 C   0  0  0  0  0  0  0  0  0  0  0  0
   -1.0481    1.7588   -0.6672 C   0  0  0  0  0  0  0  0  0  0  0  0
    0.3788    3.6445   -1.1992 C   0  0  0  0  0  0  0  0  0  0  0  0
   -0.8910    3.0643   -1.1014 C   0  0  0  0  0  0  0  0  0  0  0  0
    0.2844    5.0699   -1.6440 C   0  0  0  0  0  0  0  0  0  0  0  0
   -1.9586    4.0449   -1.4715 C   0  0  0  0  0  0  0  0  0  0  0  0
   -1.1410    5.1085   -2.2279 C   0  0  0  0  0  0  0  0  0  0  0  0
   -1.7361    6.4134   -2.1508 N   0  0  0  0  0  0  0  0  0  0  0  0
    2.2482    1.0230   -0.1841 H   0  0  0  0  0  0  0  0  0  0  0  0
    0.0010   -0.0033   -0.0096 H   0  0  0  0  0  0  0  0  0  0  0  0
    2.5022    3.3807   -0.9333 H   0  0  0  0  0  0  0  0  0  0  0  0
   -2.0318    1.3098   -0.5827 H   0  0  0  0  0  0  0  0  0  0  0  0
    0.4263    5.7743   -0.8197 H   0  0  0  0  0  0  0  0  0  0  0  0
    1.0283    5.2640   -2.4231 H   0  0  0  0  0  0  0  0  0  0  0  0
   -2.6838    3.5671   -2.1380 H   0  0  0  0  0  0  0  0  0  0  0  0
   -2.4770    4.4468   -0.5964 H   0  0  0  0  0  0  0  0  0  0  0  0
   -1.1024    4.8376   -3.3127 H   0  0  0  0  0  0  0  0  0  0  0  0
   -2.7277    6.4700   -2.1655 H   0  0  0  0  0  0  0  0  0  0  0  0
   -1.1447    7.1992   -2.2912 H   0  0  0  0  0  0  0  0  0  0  0  0
  1  2  1  0  0  0  0
  1  3  2  0  0  0  0
  2  4  2  0  0  0  0
  3  5  1  0  0  0  0
  4  6  1  0  0  0  0
  5  6  2  0  0  0  0
  5  7  1  0  0  0  0
  6  8  1  0  0  0  0
  7  9  1  0  0  0  0
  8  9  1  0  0  0  0
  9 10  1  0  0  0  0
  1 11  1  0  0  0  0
  2 12  1  0  0  0  0
  3 13  1  0  0  0  0
  4 14  1  0  0  0  0
  7 15  1  0  0  0  0
  7 16  1  0  0  0  0
  8 17  1  0  0  0  0
  8 18  1  0  0  0  0
  9 19  1  0  0  0  0
 10 20  1  0  0  0  0
 10 21  1  0  0  0  0
M  END
$$$$
frag.vs.162
  -OEChem-01121112263D

 23 24  0     0  0  0  0  0  0999 V2000
   -0.8428   -2.8471    1.6548 C   0  0  0  0  0  0  0  0  0  0  0  0
   -0.8213   -1.4954    1.3121 C   0  0  0  0  0  0  0  0  0  0  0  0
    0.7858   -1.9588   -0.4300 C   0  0  0  0  0  0  0  0  0  0  0  0
   -0.0447   -3.7582    0.9528 C   0  0  0  0  0  0  0  0  0  0  0  0
    0.7873   -3.3185   -0.0885 C   0  0  0  0  0  0  0  0  0  0  0  0
   -0.0107   -1.0520    0.2698 C   0  0  0  0  0  0  0  0  0  0  0  0
   -0.0938   -5.1993    1.3117 C   0  0  0  0  0  0  0  0  0  0  0  0
    1.6399   -4.2790   -0.8729 C   0  0  0  0  0  0  0  0  0  0  0  0
    0.7578   -6.1641    0.5163 C   0  0  0  0  0  0  0  0  0  0  0  0
    2.0070   -5.4964   -0.0346 C   0  0  0  0  0  0  0  0  0  0  0  0
    0.0030    0.3145   -0.0801 N   0  0  0  0  0  0  0  0  0  0  0  0
   -0.8477   -5.5955    2.1961 O   0  0  0  0  0  0  0  0  0  0  0  0
   -1.4893   -3.1702    2.4662 H   0  0  0  0  0  0  0  0  0  0  0  0
   -1.4458   -0.7960    1.8625 H   0  0  0  0  0  0  0  0  0  0  0  0
    1.4135   -1.6076   -1.2466 H   0  0  0  0  0  0  0  0  0  0  0  0
    1.0902   -4.5874   -1.7703 H   0  0  0  0  0  0  0  0  0  0  0  0
    2.5630   -3.7858   -1.1992 H   0  0  0  0  0  0  0  0  0  0  0  0
    1.0543   -6.9867    1.1764 H   0  0  0  0  0  0  0  0  0  0  0  0
    0.1439   -6.5750   -0.2924 H   0  0  0  0  0  0  0  0  0  0  0  0
    2.5747   -6.2097   -0.6424 H   0  0  0  0  0  0  0  0  0  0  0  0
    2.6564   -5.1906    0.7963 H   0  0  0  0  0  0  0  0  0  0  0  0
   -0.6083    0.9461    0.3963 H   0  0  0  0  0  0  0  0  0  0  0  0
    0.5530    0.6123   -0.8602 H   0  0  0  0  0  0  0  0  0  0  0  0
  1  2  1  0  0  0  0
  1  4  2  0  0  0  0
  2  6  2  0  0  0  0
  3  5  2  0  0  0  0
  3  6  1  0  0  0  0
  4  5  1  0  0  0  0
  4  7  1  0  0  0  0
  5  8  1  0  0  0  0
  6 11  1  0  0  0  0
  7  9  1  0  0  0  0
  7 12  2  0  0  0  0
  8 10  1  0  0  0  0
  9 10  1  0  0  0  0
  1 13  1  0  0  0  0
  2 14  1  0  0  0  0
  3 15  1  0  0  0  0
  8 16  1  0  0  0  0
  8 17  1  0  0  0  0
  9 18  1  0  0  0  0
  9 19  1  0  0  0  0
 10 20  1  0  0  0  0
 10 21  1  0  0  0  0
 11 22  1  0  0  0  0
 11 23  1  0  0  0  0
M  END
$$$$
frag.vs.163
  -OEChem-01121112263D

 16 17  0     0  0  0  0  0  0999 V2000
    1.6756   -0.7186   -2.8730 C   0  0  0  0  0  0  0  0  0  0  0  0
    1.3776   -0.1269   -1.6421 C   0  0  0  0  0  0  0  0  0  0  0  0
   -0.6742   -1.4085   -1.4795 C   0  0  0  0  0  0  0  0  0  0  0  0
   -0.0585   -3.1484   -4.8253 C   0  0  0  0  0  0  0  0  0  0  0  0
    0.7916   -1.6713   -3.4245 C   0  0  0  0  0  0  0  0  0  0  0  0
    0.2175   -0.4688   -0.9561 C   0  0  0  0  0  0  0  0  0  0  0  0
   -0.3685   -1.9990   -2.7163 C   0  0  0  0  0  0  0  0  0  0  0  0
    0.9552   -2.3379   -4.6301 N   0  0  0  0  0  0  0  0  0  0  0  0
   -0.0656    0.1411    0.2866 N   0  0  0  0  0  0  0  0  0  0  0  0
   -1.2595   -3.1758   -3.6075 S   0  0  0  0  0  0  0  0  0  0  0  0
    2.5848   -0.4440   -3.4004 H   0  0  0  0  0  0  0  0  0  0  0  0
    2.0668    0.6056   -1.2284 H   0  0  0  0  0  0  0  0  0  0  0  0
   -1.5810   -1.6775   -0.9448 H   0  0  0  0  0  0  0  0  0  0  0  0
   -0.1356   -3.7687   -5.7076 H   0  0  0  0  0  0  0  0  0  0  0  0
    0.5982    0.7767    0.6777 H   0  0  0  0  0  0  0  0  0  0  0  0
   -0.8768   -0.1453    0.7940 H   0  0  0  0  0  0  0  0  0  0  0  0
  1  2  1  0  0  0  0
  1  5  2  0  0  0  0
  2  6  2  0  0  0  0
  3  6  1  0  0  0  0
  3  7  2  0  0  0  0
  4  8  2  0  0  0  0
  4 10  1  0  0  0  0
  5  7  1  0  0  0  0
  5  8  1  0  0  0  0
  6  9  1  0  0  0  0
  7 10  1  0  0  0  0
  1 11  1  0  0  0  0
  2 12  1  0  0  0  0
  3 13  1  0  0  0  0
  4 14  1  0  0  0  0
  9 15  1  0  0  0  0
  9 16  1  0  0  0  0
M  END
$$$$
frag.vs.164
  -OEChem-01121112263D

 22 23  0     0  0  0  0  0  0999 V2000
   -1.8755   -2.4744   -1.3885 C   0  0  0  0  0  0  0  0  0  0  0  0
   -0.3213   -1.0034   -0.2637 C   0  0  0  0  0  0  0  0  0  0  0  0
   -1.1459   -3.5863   -0.9553 C   0  0  0  0  0  0  0  0  0  0  0  0
    0.4049   -2.1069    0.1823 C   0  0  0  0  0  0  0  0  0  0  0  0
   -0.0141   -3.3949   -0.1538 C   0  0  0  0  0  0  0  0  0  0  0  0
   -1.4617   -1.1868   -1.0451 C   0  0  0  0  0  0  0  0  0  0  0  0
   -1.5803   -4.9762   -1.3080 C   0  0  0  0  0  0  0  0  0  0  0  0
    0.1202   -5.7136    0.1214 C   0  0  0  0  0  0  0  0  0  0  0  0
    1.6200   -1.8837    1.0215 C   0  0  0  0  0  0  0  0  0  0  0  0
    0.7422   -4.4383    0.3157 O   0  0  0  0  0  0  0  0  0  0  0  0
   -0.4881   -5.8812   -1.1572 O   0  0  0  0  0  0  0  0  0  0  0  0
    1.3220   -2.2021    2.3746 O   0  0  0  0  0  0  0  0  0  0  0  0
   -2.1604   -0.1249   -1.4680 F   0  0  0  0  0  0  0  0  0  0  0  0
   -2.7656   -2.6038   -1.9983 H   0  0  0  0  0  0  0  0  0  0  0  0
   -0.0083    0.0049   -0.0056 H   0  0  0  0  0  0  0  0  0  0  0  0
   -2.4090   -5.2945   -0.6654 H   0  0  0  0  0  0  0  0  0  0  0  0
   -1.9056   -5.0270   -2.3519 H   0  0  0  0  0  0  0  0  0  0  0  0
    0.9043   -6.4717    0.2121 H   0  0  0  0  0  0  0  0  0  0  0  0
   -0.6071   -5.8987    0.9230 H   0  0  0  0  0  0  0  0  0  0  0  0
    2.4561   -2.5120    0.6876 H   0  0  0  0  0  0  0  0  0  0  0  0
    1.9501   -0.8381    0.9678 H   0  0  0  0  0  0  0  0  0  0  0  0
    2.1330   -2.0445    2.8843 H   0  0  0  0  0  0  0  0  0  0  0  0
  1  3  2  0  0  0  0
  1  6  1  0  0  0  0
  2  4  1  0  0  0  0
  2  6  2  0  0  0  0
  3  5  1  0  0  0  0
  3  7  1  0  0  0  0
  4  5  2  0  0  0  0
  4  9  1  0  0  0  0
  5 10  1  0  0  0  0
  6 13  1  0  0  0  0
  7 11  1  0  0  0  0
  8 10  1  0  0  0  0
  8 11  1  0  0  0  0
  9 12  1  0  0  0  0
  1 14  1  0  0  0  0
  2 15  1  0  0  0  0
  7 16  1  0  0  0  0
  7 17  1  0  0  0  0
  8 18  1  0  0  0  0
  8 19  1  0  0  0  0
  9 20  1  0  0  0  0
  9 21  1  0  0  0  0
 12 22  1  0  0  0  0
M  END
$$$$
frag.vs.165
  -OEChem-01121112263D

 24 25  0     0  0  0  0  0  0999 V2000
    3.7963   -1.7291    3.9705 C   0  0  0  0  0  0  0  0  0  0  0  0
    4.4803   -4.9806    2.6749 C   0  0  0  0  0  0  0  0  0  0  0  0
    3.9376   -2.1722    5.2684 C   0  0  0  0  0  0  0  0  0  0  0  0
    4.0069   -2.8057    3.0698 C   0  0  0  0  0  0  0  0  0  0  0  0
    4.2924   -3.9913    3.6825 C   0  0  0  0  0  0  0  0  0  0  0  0
    4.2935   -4.3248    1.4775 C   0  0  0  0  0  0  0  0  0  0  0  0
    3.7407   -1.9725    0.7412 C   0  0  0  0  0  0  0  0  0  0  0  0
    3.1819   -5.5697   -1.8604 C   0  0  0  0  0  0  0  0  0  0  0  0
    4.3706   -4.8631    0.1015 C   0  0  0  0  0  0  0  0  0  0  0  0
    4.0065   -3.0067    1.7115 N   0  0  0  0  0  0  0  0  0  0  0  0
    3.0696   -5.0476   -0.5009 N   0  0  0  0  0  0  0  0  0  0  0  0
    4.3167   -3.8458    5.4087 S   0  0  0  0  0  0  0  0  0  0  0  0
    3.5596   -0.7097    3.6962 H   0  0  0  0  0  0  0  0  0  0  0  0
    4.7198   -6.0259    2.8102 H   0  0  0  0  0  0  0  0  0  0  0  0
    3.8352   -1.5838    6.1695 H   0  0  0  0  0  0  0  0  0  0  0  0
    4.6923   -1.5021    0.4802 H   0  0  0  0  0  0  0  0  0  0  0  0
    3.2772   -2.4150   -0.1450 H   0  0  0  0  0  0  0  0  0  0  0  0
    3.0560   -1.2380    1.1743 H   0  0  0  0  0  0  0  0  0  0  0  0
    3.7676   -4.8845   -2.4788 H   0  0  0  0  0  0  0  0  0  0  0  0
    2.1894   -5.6837   -2.3047 H   0  0  0  0  0  0  0  0  0  0  0  0
    3.6759   -6.5450   -1.8512 H   0  0  0  0  0  0  0  0  0  0  0  0
    4.9418   -4.1959   -0.5662 H   0  0  0  0  0  0  0  0  0  0  0  0
    4.8793   -5.8413    0.0667 H   0  0  0  0  0  0  0  0  0  0  0  0
    2.5186   -5.7043    0.0581 H   0  0  0  0  0  0  0  0  0  0  0  0
  1  3  2  0  0  0  0
  1  4  1  0  0  0  0
  2  5  1  0  0  0  0
  2  6  2  0  0  0  0
  3 12  1  0  0  0  0
  4  5  2  0  0  0  0
  4 10  1  0  0  0  0
  5 12  1  0  0  0  0
  6  9  1  0  0  0  0
  6 10  1  0  0  0  0
  7 10  1  0  0  0  0
  8 11  1  0  0  0  0
  9 11  1  0  0  0  0
  1 13  1  0  0  0  0
  2 14  1  0  0  0  0
  3 15  1  0  0  0  0
  7 16  1  0  0  0  0
  7 17  1  0  0  0  0
  7 18  1  0  0  0  0
  8 19  1  0  0  0  0
  8 20  1  0  0  0  0
  8 21  1  0  0  0  0
  9 22  1  0  0  0  0
  9 23  1  0  0  0  0
 11 24  1  0  0  0  0
M  END
$$$$
frag.vs.166
  -OEChem-01121112263D

 25 26  0     0  0  0  0  0  0999 V2000
    1.0784   -0.3918   -3.2119 C   0  0  0  0  0  0  0  0  0  0  0  0
    1.0074    0.0965   -1.9073 C   0  0  0  0  0  0  0  0  0  0  0  0
   -0.8696   -1.3779   -1.4106 C   0  0  0  0  0  0  0  0  0  0  0  0
    0.1658   -1.3646   -3.5752 C   0  0  0  0  0  0  0  0  0  0  0  0
   -0.7977   -1.8622   -2.7066 C   0  0  0  0  0  0  0  0  0  0  0  0
    0.0405   -0.3926   -1.0126 C   0  0  0  0  0  0  0  0  0  0  0  0
    0.0160   -2.0396   -4.8544 C   0  0  0  0  0  0  0  0  0  0  0  0
   -0.8931   -0.2444    1.3178 C   0  0  0  0  0  0  0  0  0  0  0  0
   -1.6634   -2.9056   -3.3358 C   0  0  0  0  0  0  0  0  0  0  0  0
   -1.1223   -3.0282   -4.7710 C   0  0  0  0  0  0  0  0  0  0  0  0
   -0.6203    0.5344    2.5801 C   0  0  0  0  0  0  0  0  0  0  0  0
   -0.0120    0.1107    0.2883 N   0  0  0  0  0  0  0  0  0  0  0  0
    0.7139   -1.8247   -5.8286 O   0  0  0  0  0  0  0  0  0  0  0  0
   -1.7942   -1.0757    1.2751 O   0  0  0  0  0  0  0  0  0  0  0  0
    1.8220   -0.0171   -3.9056 H   0  0  0  0  0  0  0  0  0  0  0  0
    1.7106    0.8627   -1.5891 H   0  0  0  0  0  0  0  0  0  0  0  0
   -1.6180   -1.7588   -0.7220 H   0  0  0  0  0  0  0  0  0  0  0  0
   -1.5766   -3.8596   -2.8058 H   0  0  0  0  0  0  0  0  0  0  0  0
   -2.7126   -2.5926   -3.3425 H   0  0  0  0  0  0  0  0  0  0  0  0
   -1.8931   -2.7693   -5.5032 H   0  0  0  0  0  0  0  0  0  0  0  0
   -0.7499   -4.0385   -4.9652 H   0  0  0  0  0  0  0  0  0  0  0  0
   -1.2090    1.4562    2.5809 H   0  0  0  0  0  0  0  0  0  0  0  0
    0.4413    0.7919    2.6341 H   0  0  0  0  0  0  0  0  0  0  0  0
   -0.8824   -0.0683    3.4547 H   0  0  0  0  0  0  0  0  0  0  0  0
    0.6796    0.8308    0.5259 H   0  0  0  0  0  0  0  0  0  0  0  0
  1  2  2  0  0  0  0
  1  4  1  0  0  0  0
  2  6  1  0  0  0  0
  3  5  1  0  0  0  0
  3  6  2  0  0  0  0
  4  5  2  0  0  0  0
  4  7  1  0  0  0  0
  5  9  1  0  0  0  0
  6 12  1  0  0  0  0
  7 10  1  0  0  0  0
  7 13  2  0  0  0  0
  8 11  1  0  0  0  0
  8 12  1  0  0  0  0
  8 14  2  0  0  0  0
  9 10  1  0  0  0  0
  1 15  1  0  0  0  0
  2 16  1  0  0  0  0
  3 17  1  0  0  0  0
  9 18  1  0  0  0  0
  9 19  1  0  0  0  0
 10 20  1  0  0  0  0
 10 21  1  0  0  0  0
 11 22  1  0  0  0  0
 11 23  1  0  0  0  0
 11 24  1  0  0  0  0
 12 25  1  0  0  0  0
M  END
$$$$
frag.vs.167
  -OEChem-01121112263D

 28 29  0     0  0  0  0  0  0999 V2000
   -0.8428   -2.8471    1.6548 C   0  0  0  0  0  0  0  0  0  0  0  0
   -0.8213   -1.4954    1.3121 C   0  0  0  0  0  0  0  0  0  0  0  0
    0.7858   -1.9588   -0.4300 C   0  0  0  0  0  0  0  0  0  0  0  0
   -0.0447   -3.7582    0.9528 C   0  0  0  0  0  0  0  0  0  0  0  0
    0.7873   -3.3185   -0.0885 C   0  0  0  0  0  0  0  0  0  0  0  0
   -0.0107   -1.0520    0.2698 C   0  0  0  0  0  0  0  0  0  0  0  0
   -0.0938   -5.1993    1.3117 C   0  0  0  0  0  0  0  0  0  0  0  0
   -0.7229    1.3486    0.5028 C   0  0  0  0  0  0  0  0  0  0  0  0
    1.6399   -4.2790   -0.8729 C   0  0  0  0  0  0  0  0  0  0  0  0
    0.7578   -6.1641    0.5163 C   0  0  0  0  0  0  0  0  0  0  0  0
    2.0070   -5.4964   -0.0346 C   0  0  0  0  0  0  0  0  0  0  0  0
   -0.4256    2.6688   -0.1629 C   0  0  0  0  0  0  0  0  0  0  0  0
    0.0030    0.2996   -0.0768 N   0  0  0  0  0  0  0  0  0  0  0  0
   -0.8477   -5.5955    2.1961 O   0  0  0  0  0  0  0  0  0  0  0  0
   -1.5151    1.2805    1.4370 O   0  0  0  0  0  0  0  0  0  0  0  0
   -1.4891   -3.1700    2.4664 H   0  0  0  0  0  0  0  0  0  0  0  0
   -1.4464   -0.7970    1.8634 H   0  0  0  0  0  0  0  0  0  0  0  0
    1.4129   -1.6086   -1.2479 H   0  0  0  0  0  0  0  0  0  0  0  0
    1.0902   -4.5874   -1.7704 H   0  0  0  0  0  0  0  0  0  0  0  0
    2.5629   -3.7852   -1.1991 H   0  0  0  0  0  0  0  0  0  0  0  0
    1.0543   -6.9866    1.1766 H   0  0  0  0  0  0  0  0  0  0  0  0
    0.1437   -6.5752   -0.2926 H   0  0  0  0  0  0  0  0  0  0  0  0
    2.5746   -6.2098   -0.6424 H   0  0  0  0  0  0  0  0  0  0  0  0
    2.6561   -5.1905    0.7962 H   0  0  0  0  0  0  0  0  0  0  0  0
   -1.1200    2.8298   -0.9923 H   0  0  0  0  0  0  0  0  0  0  0  0
    0.5966    2.6652   -0.5520 H   0  0  0  0  0  0  0  0  0  0  0  0
   -0.5249    3.4827    0.5613 H   0  0  0  0  0  0  0  0  0  0  0  0
    0.6209    0.5648   -0.8523 H   0  0  0  0  0  0  0  0  0  0  0  0
  1  2  2  0  0  0  0
  1  4  1  0  0  0  0
  2  6  1  0  0  0  0
  3  5  1  0  0  0  0
  3  6  2  0  0  0  0
  4  5  2  0  0  0  0
  4  7  1  0  0  0  0
  5  9  1  0  0  0  0
  6 13  1  0  0  0  0
  7 10  1  0  0  0  0
  7 14  2  0  0  0  0
  8 12  1  0  0  0  0
  8 13  1  0  0  0  0
  8 15  2  0  0  0  0
  9 11  1  0  0  0  0
 10 11  1  0  0  0  0
  1 16  1  0  0  0  0
  2 17  1  0  0  0  0
  3 18  1  0  0  0  0
  9 19  1  0  0  0  0
  9 20  1  0  0  0  0
 10 21  1  0  0  0  0
 10 22  1  0  0  0  0
 11 23  1  0  0  0  0
 11 24  1  0  0  0  0
 12 25  1  0  0  0  0
 12 26  1  0  0  0  0
 12 27  1  0  0  0  0
 13 28  1  0  0  0  0
M  END
$$$$
frag.vs.168
  -OEChem-01121112263D

 21 22  0     0  0  0  0  0  0999 V2000
    0.1850    1.2223   -2.8400 C   0  0  0  0  0  0  0  0  0  0  0  0
   -0.4742    0.1933   -2.1818 C   0  0  0  0  0  0  0  0  0  0  0  0
   -0.2160    1.2066   -4.1745 C   0  0  0  0  0  0  0  0  0  0  0  0
   -0.5162   -0.3092   -0.8970 C   0  0  0  0  0  0  0  0  0  0  0  0
   -1.2990   -0.5400   -2.9329 C   0  0  0  0  0  0  0  0  0  0  0  0
    0.1850    2.0654   -5.2422 C   0  0  0  0  0  0  0  0  0  0  0  0
    0.1994    0.1333    0.3087 C   0  0  0  0  0  0  0  0  0  0  0  0
   -2.7825   -2.5054   -2.4437 C   0  0  0  0  0  0  0  0  0  0  0  0
   -1.3648   -1.3556   -0.8393 N   0  0  0  0  0  0  0  0  0  0  0  0
   -1.8321   -1.4719   -2.1155 N   0  0  0  0  0  0  0  0  0  0  0  0
   -0.2074    2.0081   -6.4287 O   0  0  0  0  0  0  0  0  0  0  0  0
    1.0885    3.0251   -4.8626 O   0  0  0  0  0  0  0  0  0  0  0  0
   -1.3701   -0.0677   -4.5194 S   0  0  0  0  0  0  0  0  0  0  0  0
    0.8904    1.9275   -2.4206 H   0  0  0  0  0  0  0  0  0  0  0  0
   -0.3781    0.8936    0.8639 H   0  0  0  0  0  0  0  0  0  0  0  0
    0.4030   -0.7005    1.0055 H   0  0  0  0  0  0  0  0  0  0  0  0
    1.1855    0.5746    0.0732 H   0  0  0  0  0  0  0  0  0  0  0  0
   -2.2230   -3.3940   -2.7479 H   0  0  0  0  0  0  0  0  0  0  0  0
   -3.4000   -2.7238   -1.5680 H   0  0  0  0  0  0  0  0  0  0  0  0
   -3.4255   -2.1598   -3.2580 H   0  0  0  0  0  0  0  0  0  0  0  0
    1.3698    3.6211   -5.5893 H   0  0  0  0  0  0  0  0  0  0  0  0
  1  2  1  0  0  0  0
  1  3  2  0  0  0  0
  2  4  1  0  0  0  0
  2  5  2  0  0  0  0
  3  6  1  0  0  0  0
  3 13  1  0  0  0  0
  4  7  1  0  0  0  0
  4  9  2  0  0  0  0
  5 10  1  0  0  0  0
  5 13  1  0  0  0  0
  6 11  2  0  0  0  0
  6 12  1  0  0  0  0
  8 10  1  0  0  0  0
  9 10  1  0  0  0  0
  1 14  1  0  0  0  0
  7 15  1  0  0  0  0
  7 16  1  0  0  0  0
  7 17  1  0  0  0  0
  8 18  1  0  0  0  0
  8 19  1  0  0  0  0
  8 20  1  0  0  0  0
 12 21  1  0  0  0  0
M  END
$$$$
frag.vs.169
  -OEChem-01121112263D

 22 23  0     0  0  0  0  0  0999 V2000
    1.6756   -0.7186   -2.8730 C   0  0  0  0  0  0  0  0  0  0  0  0
    1.3776   -0.1269   -1.6421 C   0  0  0  0  0  0  0  0  0  0  0  0
   -0.6742   -1.4085   -1.4795 C   0  0  0  0  0  0  0  0  0  0  0  0
    0.7916   -1.6713   -3.4245 C   0  0  0  0  0  0  0  0  0  0  0  0
   -0.3685   -1.9990   -2.7163 C   0  0  0  0  0  0  0  0  0  0  0  0
    0.2175   -0.4688   -0.9561 C   0  0  0  0  0  0  0  0  0  0  0  0
   -0.0585   -3.1484   -4.8253 C   0  0  0  0  0  0  0  0  0  0  0  0
   -1.0695    1.7335    0.1608 C   0  0  0  0  0  0  0  0  0  0  0  0
    0.9552   -2.3379   -4.6301 N   0  0  0  0  0  0  0  0  0  0  0  0
   -0.1994   -3.9474   -5.9164 N   0  0  0  0  0  0  0  0  0  0  0  0
   -1.0022   -0.6123    1.3300 O   0  0  0  0  0  0  0  0  0  0  0  0
    1.1167    0.7414    1.1758 O   0  0  0  0  0  0  0  0  0  0  0  0
   -1.2595   -3.1758   -3.6075 S   0  0  0  0  0  0  0  0  0  0  0  0
   -0.1316    0.2832    0.5831 S   0  0  0  0  0  0  0  0  0  0  0  0
    2.5849   -0.4447   -3.4004 H   0  0  0  0  0  0  0  0  0  0  0  0
    2.0676    0.6044   -1.2279 H   0  0  0  0  0  0  0  0  0  0  0  0
   -1.5799   -1.6790   -0.9445 H   0  0  0  0  0  0  0  0  0  0  0  0
   -1.3252    2.2587    1.0824 H   0  0  0  0  0  0  0  0  0  0  0  0
   -0.4550    2.3659   -0.4818 H   0  0  0  0  0  0  0  0  0  0  0  0
   -1.9730    1.4187   -0.3633 H   0  0  0  0  0  0  0  0  0  0  0  0
    0.4739   -3.9264   -6.6899 H   0  0  0  0  0  0  0  0  0  0  0  0
   -1.0314   -4.5317   -6.0520 H   0  0  0  0  0  0  0  0  0  0  0  0
  1  2  2  0  0  0  0
  1  4  1  0  0  0  0
  2  6  1  0  0  0  0
  3  5  1  0  0  0  0
  3  6  2  0  0  0  0
  4  5  2  0  0  0  0
  4  9  1  0  0  0  0
  5 13  1  0  0  0  0
  6 14  1  0  0  0  0
  7  9  2  0  0  0  0
  7 10  1  0  0  0  0
  7 13  1  0  0  0  0
  8 14  1  0  0  0  0
 11 14  2  0  0  0  0
 12 14  2  0  0  0  0
  1 15  1  0  0  0  0
  2 16  1  0  0  0  0
  3 17  1  0  0  0  0
  8 18  1  0  0  0  0
  8 19  1  0  0  0  0
  8 20  1  0  0  0  0
 10 21  1  0  0  0  0
 10 22  1  0  0  0  0
M  END
$$$$
frag.vs.170
  -OEChem-01121112263D

 25 26  0     0  0  0  0  0  0999 V2000
   -0.7036    1.3640    1.5041 C   0  0  0  0  0  0  0  0  0  0  0  0
   -0.7671    0.1975    0.7446 C   0  0  0  0  0  0  0  0  0  0  0  0
   -1.6773    1.6439    2.4698 C   0  0  0  0  0  0  0  0  0  0  0  0
   -1.8022   -0.7245    0.9247 C   0  0  0  0  0  0  0  0  0  0  0  0
   -4.5471   -0.4724    3.2738 C   0  0  0  0  0  0  0  0  0  0  0  0
   -2.7304    0.7292    2.6692 C   0  0  0  0  0  0  0  0  0  0  0  0
   -3.8586    0.6897    3.5356 C   0  0  0  0  0  0  0  0  0  0  0  0
   -2.7685   -0.4315    1.8936 C   0  0  0  0  0  0  0  0  0  0  0  0
   -3.8746    2.6838    6.8333 C   0  0  0  0  0  0  0  0  0  0  0  0
   -4.2341    1.7076    4.5379 C   0  0  0  0  0  0  0  0  0  0  0  0
   -3.4210    1.6387    5.8428 C   0  0  0  0  0  0  0  0  0  0  0  0
   -3.8818   -1.1421    2.2822 N   0  0  0  0  0  0  0  0  0  0  0  0
   -4.7904    3.4691    6.6237 O   0  0  0  0  0  0  0  0  0  0  0  0
   -3.1416    2.6830    7.9738 O   0  0  0  0  0  0  0  0  0  0  0  0
    0.1112    2.0654    1.3462 H   0  0  0  0  0  0  0  0  0  0  0  0
   -0.0003    0.0001   -0.0001 H   0  0  0  0  0  0  0  0  0  0  0  0
   -1.6132    2.5572    3.0545 H   0  0  0  0  0  0  0  0  0  0  0  0
   -1.8514   -1.6318    0.3322 H   0  0  0  0  0  0  0  0  0  0  0  0
   -5.4494   -0.8842    3.7045 H   0  0  0  0  0  0  0  0  0  0  0  0
   -4.1502    2.7317    4.1218 H   0  0  0  0  0  0  0  0  0  0  0  0
   -5.3055    1.6031    4.7996 H   0  0  0  0  0  0  0  0  0  0  0  0
   -3.5492    0.6644    6.3302 H   0  0  0  0  0  0  0  0  0  0  0  0
   -2.3463    1.7378    5.6526 H   0  0  0  0  0  0  0  0  0  0  0  0
   -4.1662   -2.0297    1.8914 H   0  0  0  0  0  0  0  0  0  0  0  0
   -3.3921    3.3620    8.6359 H   0  0  0  0  0  0  0  0  0  0  0  0
  1  2  1  0  0  0  0
  1  3  2  0  0  0  0
  2  4  2  0  0  0  0
  3  6  1  0  0  0  0
  4  8  1  0  0  0  0
  5  7  2  0  0  0  0
  5 12  1  0  0  0  0
  6  7  1  0  0  0  0
  6  8  2  0  0  0  0
  7 10  1  0  0  0  0
  8 12  1  0  0  0  0
  9 11  1  0  0  0  0
  9 13  2  0  0  0  0
  9 14  1  0  0  0  0
 10 11  1  0  0  0  0
  1 15  1  0  0  0  0
  2 16  1  0  0  0  0
  3 17  1  0  0  0  0
  4 18  1  0  0  0  0
  5 19  1  0  0  0  0
 10 20  1  0  0  0  0
 10 21  1  0  0  0  0
 11 22  1  0  0  0  0
 11 23  1  0  0  0  0
 12 24  1  0  0  0  0
 14 25  1  0  0  0  0
M  END
$$$$
frag.vs.171
  -OEChem-01121112263D

 22 23  0     0  0  0  0  0  0999 V2000
    0.2979   -1.1769    1.7792 C   0  0  0  0  0  0  0  0  0  0  0  0
    0.1764   -0.9939    0.4014 C   0  0  0  0  0  0  0  0  0  0  0  0
    0.5196   -2.4525    2.2989 C   0  0  0  0  0  0  0  0  0  0  0  0
    0.2866   -2.0843   -0.4619 C   0  0  0  0  0  0  0  0  0  0  0  0
    0.6167   -3.5455    1.4372 C   0  0  0  0  0  0  0  0  0  0  0  0
    0.5219   -3.3582    0.0560 C   0  0  0  0  0  0  0  0  0  0  0  0
    0.5543   -5.8390    1.0877 C   0  0  0  0  0  0  0  0  0  0  0  0
    1.2151   -5.5522   -0.2464 C   0  0  0  0  0  0  0  0  0  0  0  0
    0.1623   -1.8599   -1.9335 C   0  0  0  0  0  0  0  0  0  0  0  0
    0.8145   -4.7756    2.0082 O   0  0  0  0  0  0  0  0  0  0  0  0
    0.6415   -4.3858   -0.8429 O   0  0  0  0  0  0  0  0  0  0  0  0
    1.4502   -1.9345   -2.5307 O   0  0  0  0  0  0  0  0  0  0  0  0
    0.2160   -0.3256    2.4487 H   0  0  0  0  0  0  0  0  0  0  0  0
   -0.0013    0.0049    0.0106 H   0  0  0  0  0  0  0  0  0  0  0  0
    0.6039   -2.5872    3.3738 H   0  0  0  0  0  0  0  0  0  0  0  0
   -0.5318   -5.9546    0.9843 H   0  0  0  0  0  0  0  0  0  0  0  0
    0.9567   -6.7599    1.5209 H   0  0  0  0  0  0  0  0  0  0  0  0
    2.2953   -5.3946   -0.1371 H   0  0  0  0  0  0  0  0  0  0  0  0
    1.0603   -6.3888   -0.9350 H   0  0  0  0  0  0  0  0  0  0  0  0
   -0.4860   -2.6140   -2.3983 H   0  0  0  0  0  0  0  0  0  0  0  0
   -0.2710   -0.8742   -2.1470 H   0  0  0  0  0  0  0  0  0  0  0  0
    1.3267   -1.7842   -3.4818 H   0  0  0  0  0  0  0  0  0  0  0  0
  1  2  1  0  0  0  0
  1  3  2  0  0  0  0
  2  4  2  0  0  0  0
  3  5  1  0  0  0  0
  4  6  1  0  0  0  0
  4  9  1  0  0  0  0
  5  6  2  0  0  0  0
  5 10  1  0  0  0  0
  6 11  1  0  0  0  0
  7  8  1  0  0  0  0
  7 10  1  0  0  0  0
  8 11  1  0  0  0  0
  9 12  1  0  0  0  0
  1 13  1  0  0  0  0
  2 14  1  0  0  0  0
  3 15  1  0  0  0  0
  7 16  1  0  0  0  0
  7 17  1  0  0  0  0
  8 18  1  0  0  0  0
  8 19  1  0  0  0  0
  9 20  1  0  0  0  0
  9 21  1  0  0  0  0
 12 22  1  0  0  0  0
M  END
$$$$
frag.vs.172
  -OEChem-01121112263D

 22 23  0     0  0  0  0  0  0999 V2000
   -0.7036    1.3640    1.5041 C   0  0  0  0  0  0  0  0  0  0  0  0
   -0.7671    0.1975    0.7446 C   0  0  0  0  0  0  0  0  0  0  0  0
   -1.6773    1.6439    2.4698 C   0  0  0  0  0  0  0  0  0  0  0  0
   -1.8022   -0.7245    0.9247 C   0  0  0  0  0  0  0  0  0  0  0  0
   -4.5471   -0.4724    3.2738 C   0  0  0  0  0  0  0  0  0  0  0  0
   -2.7304    0.7292    2.6692 C   0  0  0  0  0  0  0  0  0  0  0  0
   -3.8586    0.6897    3.5356 C   0  0  0  0  0  0  0  0  0  0  0  0
   -2.7685   -0.4315    1.8936 C   0  0  0  0  0  0  0  0  0  0  0  0
   -4.8911    2.9085    3.8932 C   0  0  0  0  0  0  0  0  0  0  0  0
   -4.2341    1.7076    4.5379 C   0  0  0  0  0  0  0  0  0  0  0  0
   -3.8818   -1.1421    2.2822 N   0  0  0  0  0  0  0  0  0  0  0  0
   -5.0054    3.0572    2.6831 O   0  0  0  0  0  0  0  0  0  0  0  0
   -5.3033    3.8316    4.7979 O   0  0  0  0  0  0  0  0  0  0  0  0
    0.1112    2.0654    1.3462 H   0  0  0  0  0  0  0  0  0  0  0  0
   -0.0003    0.0001   -0.0001 H   0  0  0  0  0  0  0  0  0  0  0  0
   -1.6132    2.5572    3.0545 H   0  0  0  0  0  0  0  0  0  0  0  0
   -1.8514   -1.6318    0.3322 H   0  0  0  0  0  0  0  0  0  0  0  0
   -5.4494   -0.8842    3.7045 H   0  0  0  0  0  0  0  0  0  0  0  0
   -3.3748    2.0478    5.1389 H   0  0  0  0  0  0  0  0  0  0  0  0
   -4.9454    1.3089    5.2807 H   0  0  0  0  0  0  0  0  0  0  0  0
   -4.1662   -2.0297    1.8914 H   0  0  0  0  0  0  0  0  0  0  0  0
   -5.7063    4.6411    4.4176 H   0  0  0  0  0  0  0  0  0  0  0  0
  1  2  1  0  0  0  0
  1  3  2  0  0  0  0
  2  4  2  0  0  0  0
  3  6  1  0  0  0  0
  4  8  1  0  0  0  0
  5  7  2  0  0  0  0
  5 11  1  0  0  0  0
  6  7  1  0  0  0  0
  6  8  2  0  0  0  0
  7 10  1  0  0  0  0
  8 11  1  0  0  0  0
  9 10  1  0  0  0  0
  9 12  2  0  0  0  0
  9 13  1  0  0  0  0
  1 14  1  0  0  0  0
  2 15  1  0  0  0  0
  3 16  1  0  0  0  0
  4 17  1  0  0  0  0
  5 18  1  0  0  0  0
 10 19  1  0  0  0  0
 10 20  1  0  0  0  0
 11 21  1  0  0  0  0
 13 22  1  0  0  0  0
M  END
$$$$
frag.vs.173
  -OEChem-01121112263D

 21 22  0     0  0  0  0  0  0999 V2000
    1.8575   -1.0770   -0.1202 C   0  0  0  0  0  0  0  0  0  0  0  0
    0.8725   -0.3471    0.5479 C   0  0  0  0  0  0  0  0  0  0  0  0
    2.9942   -1.5392    0.5550 C   0  0  0  0  0  0  0  0  0  0  0  0
    0.9878   -0.0537    1.9107 C   0  0  0  0  0  0  0  0  0  0  0  0
    3.1242   -1.2526    1.9242 C   0  0  0  0  0  0  0  0  0  0  0  0
    2.1285   -0.5238    2.5651 C   0  0  0  0  0  0  0  0  0  0  0  0
    4.0702   -1.5186    2.9374 C   0  0  0  0  0  0  0  0  0  0  0  0
    5.3041   -2.2441    2.8178 C   0  0  0  0  0  0  0  0  0  0  0  0
    1.8465    0.2577    4.9383 C   0  0  0  0  0  0  0  0  0  0  0  0
    3.7190   -1.0102    4.1207 N   0  0  0  0  0  0  0  0  0  0  0  0
    2.5420   -0.4150    3.8654 N   0  0  0  0  0  0  0  0  0  0  0  0
    5.7499   -2.7678    1.7789 O   0  0  0  0  0  0  0  0  0  0  0  0
    5.9980   -2.3239    3.9943 O   0  0  0  0  0  0  0  0  0  0  0  0
    1.7418   -1.2906   -1.1797 H   0  0  0  0  0  0  0  0  0  0  0  0
   -0.0001    0.0002    0.0004 H   0  0  0  0  0  0  0  0  0  0  0  0
    3.7529   -2.1053    0.0234 H   0  0  0  0  0  0  0  0  0  0  0  0
    0.2218    0.5134    2.4283 H   0  0  0  0  0  0  0  0  0  0  0  0
    1.1873   -0.4688    5.4208 H   0  0  0  0  0  0  0  0  0  0  0  0
    2.5740    0.6488    5.6550 H   0  0  0  0  0  0  0  0  0  0  0  0
    1.2661    1.0886    4.5277 H   0  0  0  0  0  0  0  0  0  0  0  0
    6.8431   -2.8169    3.9229 H   0  0  0  0  0  0  0  0  0  0  0  0
  1  2  1  0  0  0  0
  1  3  2  0  0  0  0
  2  4  2  0  0  0  0
  3  5  1  0  0  0  0
  4  6  1  0  0  0  0
  5  6  2  0  0  0  0
  5  7  1  0  0  0  0
  6 11  1  0  0  0  0
  7  8  1  0  0  0  0
  7 10  2  0  0  0  0
  8 12  2  0  0  0  0
  8 13  1  0  0  0  0
  9 11  1  0  0  0  0
 10 11  1  0  0  0  0
  1 14  1  0  0  0  0
  2 15  1  0  0  0  0
  3 16  1  0  0  0  0
  4 17  1  0  0  0  0
  9 18  1  0  0  0  0
  9 19  1  0  0  0  0
  9 20  1  0  0  0  0
 13 21  1  0  0  0  0
M  END
$$$$
frag.vs.174
  -OEChem-01121112263D

 27 28  0     0  0  0  0  0  0999 V2000
    1.8575   -1.0770   -0.1202 C   0  0  0  0  0  0  0  0  0  0  0  0
    0.8725   -0.3471    0.5479 C   0  0  0  0  0  0  0  0  0  0  0  0
    2.9942   -1.5392    0.5550 C   0  0  0  0  0  0  0  0  0  0  0  0
    0.9878   -0.0537    1.9107 C   0  0  0  0  0  0  0  0  0  0  0  0
    3.1242   -1.2526    1.9242 C   0  0  0  0  0  0  0  0  0  0  0  0
    2.1285   -0.5238    2.5651 C   0  0  0  0  0  0  0  0  0  0  0  0
    4.0702   -1.5186    2.9374 C   0  0  0  0  0  0  0  0  0  0  0  0
    5.3041   -2.2441    2.8178 C   0  0  0  0  0  0  0  0  0  0  0  0
    7.8141   -2.9686    5.4171 C   0  0  0  0  0  0  0  0  0  0  0  0
    1.8465    0.2577    4.9383 C   0  0  0  0  0  0  0  0  0  0  0  0
    7.2353   -3.0118    4.0190 C   0  0  0  0  0  0  0  0  0  0  0  0
    3.7190   -1.0102    4.1207 N   0  0  0  0  0  0  0  0  0  0  0  0
    2.5420   -0.4150    3.8654 N   0  0  0  0  0  0  0  0  0  0  0  0
    5.7337   -2.7620    1.7662 O   0  0  0  0  0  0  0  0  0  0  0  0
    5.9858   -2.3129    4.0098 O   0  0  0  0  0  0  0  0  0  0  0  0
    1.7418   -1.2906   -1.1797 H   0  0  0  0  0  0  0  0  0  0  0  0
   -0.0001    0.0002    0.0004 H   0  0  0  0  0  0  0  0  0  0  0  0
    3.7529   -2.1053    0.0234 H   0  0  0  0  0  0  0  0  0  0  0  0
    0.2218    0.5134    2.4283 H   0  0  0  0  0  0  0  0  0  0  0  0
    7.9888   -1.9371    5.7354 H   0  0  0  0  0  0  0  0  0  0  0  0
    7.1363   -3.4487    6.1305 H   0  0  0  0  0  0  0  0  0  0  0  0
    8.7612   -3.5167    5.4597 H   0  0  0  0  0  0  0  0  0  0  0  0
    1.1873   -0.4688    5.4208 H   0  0  0  0  0  0  0  0  0  0  0  0
    2.5740    0.6488    5.6550 H   0  0  0  0  0  0  0  0  0  0  0  0
    1.2661    1.0886    4.5277 H   0  0  0  0  0  0  0  0  0  0  0  0
    7.0629   -4.0461    3.7068 H   0  0  0  0  0  0  0  0  0  0  0  0
    7.9133   -2.5309    3.3077 H   0  0  0  0  0  0  0  0  0  0  0  0
  1  2  1  0  0  0  0
  1  3  2  0  0  0  0
  2  4  2  0  0  0  0
  3  5  1  0  0  0  0
  4  6  1  0  0  0  0
  5  6  2  0  0  0  0
  5  7  1  0  0  0  0
  6 13  1  0  0  0  0
  7  8  1  0  0  0  0
  7 12  2  0  0  0  0
  8 14  2  0  0  0  0
  8 15  1  0  0  0  0
  9 11  1  0  0  0  0
 10 13  1  0  0  0  0
 11 15  1  0  0  0  0
 12 13  1  0  0  0  0
  1 16  1  0  0  0  0
  2 17  1  0  0  0  0
  3 18  1  0  0  0  0
  4 19  1  0  0  0  0
  9 20  1  0  0  0  0
  9 21  1  0  0  0  0
  9 22  1  0  0  0  0
 10 23  1  0  0  0  0
 10 24  1  0  0  0  0
 10 25  1  0  0  0  0
 11 26  1  0  0  0  0
 11 27  1  0  0  0  0
M  END
$$$$
frag.vs.175
  -OEChem-01121112263D

 23 24  0     0  0  0  0  0  0999 V2000
    1.8575   -1.0770   -0.1202 C   0  0  0  0  0  0  0  0  0  0  0  0
    0.8725   -0.3471    0.5479 C   0  0  0  0  0  0  0  0  0  0  0  0
    2.9942   -1.5392    0.5550 C   0  0  0  0  0  0  0  0  0  0  0  0
    0.9878   -0.0537    1.9107 C   0  0  0  0  0  0  0  0  0  0  0  0
    3.1242   -1.2526    1.9242 C   0  0  0  0  0  0  0  0  0  0  0  0
    2.1285   -0.5238    2.5651 C   0  0  0  0  0  0  0  0  0  0  0  0
    4.0702   -1.5186    2.9374 C   0  0  0  0  0  0  0  0  0  0  0  0
    1.8457    0.2568    4.9384 C   0  0  0  0  0  0  0  0  0  0  0  0
    5.3358   -2.2636    2.8152 C   0  0  0  0  0  0  0  0  0  0  0  0
    3.7190   -1.0102    4.1207 N   0  0  0  0  0  0  0  0  0  0  0  0
    2.5420   -0.4150    3.8654 N   0  0  0  0  0  0  0  0  0  0  0  0
    5.1430   -3.6960    2.7316 N   0  0  0  0  0  0  0  0  0  0  0  0
    1.7406   -1.2913   -1.1794 H   0  0  0  0  0  0  0  0  0  0  0  0
   -0.0000    0.0006    0.0003 H   0  0  0  0  0  0  0  0  0  0  0  0
    3.7525   -2.1060    0.0234 H   0  0  0  0  0  0  0  0  0  0  0  0
    0.2219    0.5135    2.4278 H   0  0  0  0  0  0  0  0  0  0  0  0
    1.1872   -0.4705    5.4206 H   0  0  0  0  0  0  0  0  0  0  0  0
    2.5727    0.6485    5.6553 H   0  0  0  0  0  0  0  0  0  0  0  0
    1.2644    1.0872    4.5280 H   0  0  0  0  0  0  0  0  0  0  0  0
    5.9049   -1.9676    1.9148 H   0  0  0  0  0  0  0  0  0  0  0  0
    6.0121   -2.0872    3.6715 H   0  0  0  0  0  0  0  0  0  0  0  0
    5.8789   -4.3002    3.0465 H   0  0  0  0  0  0  0  0  0  0  0  0
    4.3810   -4.0481    2.1826 H   0  0  0  0  0  0  0  0  0  0  0  0
  1  2  1  0  0  0  0
  1  3  2  0  0  0  0
  2  4  2  0  0  0  0
  3  5  1  0  0  0  0
  4  6  1  0  0  0  0
  5  6  2  0  0  0  0
  5  7  1  0  0  0  0
  6 11  1  0  0  0  0
  7  9  1  0  0  0  0
  7 10  2  0  0  0  0
  8 11  1  0  0  0  0
  9 12  1  0  0  0  0
 10 11  1  0  0  0  0
  1 13  1  0  0  0  0
  2 14  1  0  0  0  0
  3 15  1  0  0  0  0
  4 16  1  0  0  0  0
  8 17  1  0  0  0  0
  8 18  1  0  0  0  0
  8 19  1  0  0  0  0
  9 20  1  0  0  0  0
  9 21  1  0  0  0  0
 12 22  1  0  0  0  0
 12 23  1  0  0  0  0
M  END
$$$$
frag.vs.176
  -OEChem-01121112263D

 26 27  0     0  0  0  0  0  0999 V2000
    3.3761   -1.4160    5.8249 C   0  0  0  0  0  0  0  0  0  0  0  0
    2.4717   -2.0390    6.6870 C   0  0  0  0  0  0  0  0  0  0  0  0
    4.1106   -2.1587    4.8920 C   0  0  0  0  0  0  0  0  0  0  0  0
    2.2694   -3.4225    6.6480 C   0  0  0  0  0  0  0  0  0  0  0  0
    3.9183   -3.5494    4.8405 C   0  0  0  0  0  0  0  0  0  0  0  0
    3.0114   -4.1444    5.7105 C   0  0  0  0  0  0  0  0  0  0  0  0
    4.4331   -4.6237    4.0834 C   0  0  0  0  0  0  0  0  0  0  0  0
    2.2847   -6.5275    6.0492 C   0  0  0  0  0  0  0  0  0  0  0  0
    5.9323   -4.0024    0.7268 C   0  0  0  0  0  0  0  0  0  0  0  0
    5.4377   -4.5672    3.0066 C   0  0  0  0  0  0  0  0  0  0  0  0
    3.9086   -5.8010    4.4310 N   0  0  0  0  0  0  0  0  0  0  0  0
    3.0531   -5.4805    5.4160 N   0  0  0  0  0  0  0  0  0  0  0  0
    4.9051   -4.0519    1.7629 N   0  0  0  0  0  0  0  0  0  0  0  0
    3.5118   -0.3388    5.8770 H   0  0  0  0  0  0  0  0  0  0  0  0
    1.9143   -1.4393    7.4025 H   0  0  0  0  0  0  0  0  0  0  0  0
    4.8105   -1.6616    4.2273 H   0  0  0  0  0  0  0  0  0  0  0  0
    1.5667   -3.9046    7.3184 H   0  0  0  0  0  0  0  0  0  0  0  0
    1.3488   -6.6409    5.4957 H   0  0  0  0  0  0  0  0  0  0  0  0
    2.8554   -7.4601    6.0305 H   0  0  0  0  0  0  0  0  0  0  0  0
    2.0845   -6.2510    7.0881 H   0  0  0  0  0  0  0  0  0  0  0  0
    6.7610   -3.3667    1.0495 H   0  0  0  0  0  0  0  0  0  0  0  0
    5.5162   -3.5953   -0.1988 H   0  0  0  0  0  0  0  0  0  0  0  0
    6.3161   -5.0064    0.5268 H   0  0  0  0  0  0  0  0  0  0  0  0
    6.2956   -3.9234    3.2745 H   0  0  0  0  0  0  0  0  0  0  0  0
    5.8652   -5.5604    2.7776 H   0  0  0  0  0  0  0  0  0  0  0  0
    4.1411   -4.6506    1.4410 H   0  0  0  0  0  0  0  0  0  0  0  0
  1  2  1  0  0  0  0
  1  3  2  0  0  0  0
  2  4  2  0  0  0  0
  3  5  1  0  0  0  0
  4  6  1  0  0  0  0
  5  6  2  0  0  0  0
  5  7  1  0  0  0  0
  6 12  1  0  0  0  0
  7 10  1  0  0  0  0
  7 11  2  0  0  0  0
  8 12  1  0  0  0  0
  9 13  1  0  0  0  0
 10 13  1  0  0  0  0
 11 12  1  0  0  0  0
  1 14  1  0  0  0  0
  2 15  1  0  0  0  0
  3 16  1  0  0  0  0
  4 17  1  0  0  0  0
  8 18  1  0  0  0  0
  8 19  1  0  0  0  0
  8 20  1  0  0  0  0
  9 21  1  0  0  0  0
  9 22  1  0  0  0  0
  9 23  1  0  0  0  0
 10 24  1  0  0  0  0
 10 25  1  0  0  0  0
 13 26  1  0  0  0  0
M  END
$$$$
frag.vs.177
  -OEChem-01121112263D

 22 23  0     0  0  0  0  0  0999 V2000
    1.8575   -1.0770   -0.1202 C   0  0  0  0  0  0  0  0  0  0  0  0
    0.8725   -0.3471    0.5479 C   0  0  0  0  0  0  0  0  0  0  0  0
    2.9942   -1.5392    0.5550 C   0  0  0  0  0  0  0  0  0  0  0  0
    0.9878   -0.0537    1.9107 C   0  0  0  0  0  0  0  0  0  0  0  0
    3.1242   -1.2526    1.9242 C   0  0  0  0  0  0  0  0  0  0  0  0
    2.1285   -0.5238    2.5651 C   0  0  0  0  0  0  0  0  0  0  0  0
    4.0702   -1.5186    2.9374 C   0  0  0  0  0  0  0  0  0  0  0  0
    1.8457    0.2568    4.9384 C   0  0  0  0  0  0  0  0  0  0  0  0
    5.3358   -2.2636    2.8152 C   0  0  0  0  0  0  0  0  0  0  0  0
    3.7190   -1.0102    4.1207 N   0  0  0  0  0  0  0  0  0  0  0  0
    2.5420   -0.4150    3.8654 N   0  0  0  0  0  0  0  0  0  0  0  0
    5.0733   -3.6649    2.7297 O   0  0  0  0  0  0  0  0  0  0  0  0
    1.7406   -1.2913   -1.1794 H   0  0  0  0  0  0  0  0  0  0  0  0
   -0.0000    0.0006    0.0003 H   0  0  0  0  0  0  0  0  0  0  0  0
    3.7525   -2.1060    0.0234 H   0  0  0  0  0  0  0  0  0  0  0  0
    0.2219    0.5135    2.4278 H   0  0  0  0  0  0  0  0  0  0  0  0
    1.1872   -0.4705    5.4206 H   0  0  0  0  0  0  0  0  0  0  0  0
    2.5727    0.6485    5.6553 H   0  0  0  0  0  0  0  0  0  0  0  0
    1.2644    1.0872    4.5280 H   0  0  0  0  0  0  0  0  0  0  0  0
    5.9085   -1.9711    1.9163 H   0  0  0  0  0  0  0  0  0  0  0  0
    6.0018   -2.0941    3.6806 H   0  0  0  0  0  0  0  0  0  0  0  0
    5.9355   -4.1000    2.6516 H   0  0  0  0  0  0  0  0  0  0  0  0
  1  2  1  0  0  0  0
  1  3  2  0  0  0  0
  2  4  2  0  0  0  0
  3  5  1  0  0  0  0
  4  6  1  0  0  0  0
  5  6  2  0  0  0  0
  5  7  1  0  0  0  0
  6 11  1  0  0  0  0
  7  9  1  0  0  0  0
  7 10  2  0  0  0  0
  8 11  1  0  0  0  0
  9 12  1  0  0  0  0
 10 11  1  0  0  0  0
  1 13  1  0  0  0  0
  2 14  1  0  0  0  0
  3 15  1  0  0  0  0
  4 16  1  0  0  0  0
  8 17  1  0  0  0  0
  8 18  1  0  0  0  0
  8 19  1  0  0  0  0
  9 20  1  0  0  0  0
  9 21  1  0  0  0  0
 12 22  1  0  0  0  0
M  END
$$$$
frag.vs.178
  -OEChem-01121112263D

 17 18  0     0  0  0  0  0  0999 V2000
   -0.7851   -2.4055   -1.5570 C   0  0  0  0  0  0  0  0  0  0  0  0
   -0.7367   -3.7197   -1.9686 C   0  0  0  0  0  0  0  0  0  0  0  0
    2.1569   -2.1163    1.2516 C   0  0  0  0  0  0  0  0  0  0  0  0
    0.1919   -2.1090   -0.5552 C   0  0  0  0  0  0  0  0  0  0  0  0
    0.5138   -0.9426    0.1461 C   0  0  0  0  0  0  0  0  0  0  0  0
    0.9463   -3.2350   -0.2517 C   0  0  0  0  0  0  0  0  0  0  0  0
    1.5084   -0.9510    1.0592 N   0  0  0  0  0  0  0  0  0  0  0  0
    1.9476   -3.2997    0.6476 N   0  0  0  0  0  0  0  0  0  0  0  0
    0.2658    1.4687    0.3616 N   0  0  0  0  0  0  0  0  0  0  0  0
   -0.1931    0.2519   -0.0898 N   0  0  0  0  0  0  0  0  0  0  0  0
    0.4816   -4.6030   -1.1554 S   0  0  0  0  0  0  0  0  0  0  0  0
   -1.4923   -1.6909   -1.9595 H   0  0  0  0  0  0  0  0  0  0  0  0
   -1.3596   -4.2017   -2.7089 H   0  0  0  0  0  0  0  0  0  0  0  0
    2.9512   -2.0968    1.9897 H   0  0  0  0  0  0  0  0  0  0  0  0
   -0.5209    1.9817    0.7567 H   0  0  0  0  0  0  0  0  0  0  0  0
    0.5824    2.0131   -0.4397 H   0  0  0  0  0  0  0  0  0  0  0  0
   -0.9350    0.2398   -0.7768 H   0  0  0  0  0  0  0  0  0  0  0  0
  1  2  2  0  0  0  0
  1  4  1  0  0  0  0
  2 11  1  0  0  0  0
  3  7  2  0  0  0  0
  3  8  1  0  0  0  0
  4  5  2  0  0  0  0
  4  6  1  0  0  0  0
  5  7  1  0  0  0  0
  5 10  1  0  0  0  0
  6  8  2  0  0  0  0
  6 11  1  0  0  0  0
  9 10  1  0  0  0  0
  1 12  1  0  0  0  0
  2 13  1  0  0  0  0
  3 14  1  0  0  0  0
  9 15  1  0  0  0  0
  9 16  1  0  0  0  0
 10 17  1  0  0  0  0
M  END
$$$$
frag.vs.179
  -OEChem-01121112263D

 21 22  0     0  0  0  0  0  0999 V2000
    2.0343   -0.2281    0.7104 C   0  0  0  0  0  0  0  0  0  0  0  0
    0.6273   -0.0414    0.8900 C   0  0  0  0  0  0  0  0  0  0  0  0
    2.9594   -0.3000    1.7706 C   0  0  0  0  0  0  0  0  0  0  0  0
    0.0078    0.0919    2.1521 C   0  0  0  0  0  0  0  0  0  0  0  0
    2.3205   -0.1657    2.9967 C   0  0  0  0  0  0  0  0  0  0  0  0
    0.9088    0.0239    3.2307 C   0  0  0  0  0  0  0  0  0  0  0  0
    2.9296   -0.1901    4.2193 C   0  0  0  0  0  0  0  0  0  0  0  0
    4.3071   -0.3496    4.5671 C   0  0  0  0  0  0  0  0  0  0  0  0
    2.0276    0.0254    6.5509 C   0  0  0  0  0  0  0  0  0  0  0  0
    0.6906    0.1091    4.5550 N   0  0  0  0  0  0  0  0  0  0  0  0
    1.9107   -0.0217    5.1110 N   0  0  0  0  0  0  0  0  0  0  0  0
    4.8780    0.1293    5.5705 O   0  0  0  0  0  0  0  0  0  0  0  0
    5.0106   -1.1131    3.6717 O   0  0  0  0  0  0  0  0  0  0  0  0
    2.4094   -0.3210   -0.3086 H   0  0  0  0  0  0  0  0  0  0  0  0
   -0.0002   -0.0010    0.0002 H   0  0  0  0  0  0  0  0  0  0  0  0
    4.0197   -0.4423    1.6160 H   0  0  0  0  0  0  0  0  0  0  0  0
   -1.0590    0.2322    2.2658 H   0  0  0  0  0  0  0  0  0  0  0  0
    2.1864    1.0669    6.8425 H   0  0  0  0  0  0  0  0  0  0  0  0
    1.1110   -0.3629    7.0035 H   0  0  0  0  0  0  0  0  0  0  0  0
    2.8724   -0.5939    6.8653 H   0  0  0  0  0  0  0  0  0  0  0  0
    5.9571   -1.2293    3.9019 H   0  0  0  0  0  0  0  0  0  0  0  0
  1  2  1  0  0  0  0
  1  3  2  0  0  0  0
  2  4  2  0  0  0  0
  3  5  1  0  0  0  0
  4  6  1  0  0  0  0
  5  6  1  0  0  0  0
  5  7  2  0  0  0  0
  6 10  2  0  0  0  0
  7  8  1  0  0  0  0
  7 11  1  0  0  0  0
  8 12  2  0  0  0  0
  8 13  1  0  0  0  0
  9 11  1  0  0  0  0
 10 11  1  0  0  0  0
  1 14  1  0  0  0  0
  2 15  1  0  0  0  0
  3 16  1  0  0  0  0
  4 17  1  0  0  0  0
  9 18  1  0  0  0  0
  9 19  1  0  0  0  0
  9 20  1  0  0  0  0
 13 21  1  0  0  0  0
M  END
$$$$
frag.vs.180
  -OEChem-01121112263D

 27 28  0     0  0  0  0  0  0999 V2000
    2.0343   -0.2281    0.7104 C   0  0  0  0  0  0  0  0  0  0  0  0
    0.6273   -0.0414    0.8900 C   0  0  0  0  0  0  0  0  0  0  0  0
    2.9594   -0.3000    1.7706 C   0  0  0  0  0  0  0  0  0  0  0  0
    0.0078    0.0919    2.1521 C   0  0  0  0  0  0  0  0  0  0  0  0
    2.3205   -0.1657    2.9967 C   0  0  0  0  0  0  0  0  0  0  0  0
    0.9088    0.0239    3.2307 C   0  0  0  0  0  0  0  0  0  0  0  0
    2.9296   -0.1901    4.2193 C   0  0  0  0  0  0  0  0  0  0  0  0
    4.3071   -0.3496    4.5671 C   0  0  0  0  0  0  0  0  0  0  0  0
    6.9422   -2.2144    2.7805 C   0  0  0  0  0  0  0  0  0  0  0  0
    2.0276    0.0254    6.5509 C   0  0  0  0  0  0  0  0  0  0  0  0
    6.3879   -1.3530    3.8952 C   0  0  0  0  0  0  0  0  0  0  0  0
    0.6906    0.1091    4.5550 N   0  0  0  0  0  0  0  0  0  0  0  0
    1.9107   -0.0217    5.1110 N   0  0  0  0  0  0  0  0  0  0  0  0
    4.8607    0.1391    5.5785 O   0  0  0  0  0  0  0  0  0  0  0  0
    4.9959   -1.1192    3.6556 O   0  0  0  0  0  0  0  0  0  0  0  0
    2.4094   -0.3210   -0.3086 H   0  0  0  0  0  0  0  0  0  0  0  0
   -0.0002   -0.0010    0.0002 H   0  0  0  0  0  0  0  0  0  0  0  0
    4.0197   -0.4423    1.6160 H   0  0  0  0  0  0  0  0  0  0  0  0
   -1.0590    0.2322    2.2658 H   0  0  0  0  0  0  0  0  0  0  0  0
    6.4282   -3.1788    2.7403 H   0  0  0  0  0  0  0  0  0  0  0  0
    6.8301   -1.7134    1.8133 H   0  0  0  0  0  0  0  0  0  0  0  0
    8.0132   -2.3906    2.9253 H   0  0  0  0  0  0  0  0  0  0  0  0
    2.1864    1.0669    6.8425 H   0  0  0  0  0  0  0  0  0  0  0  0
    1.1110   -0.3629    7.0035 H   0  0  0  0  0  0  0  0  0  0  0  0
    2.8724   -0.5939    6.8653 H   0  0  0  0  0  0  0  0  0  0  0  0
    6.9062   -0.3900    3.9299 H   0  0  0  0  0  0  0  0  0  0  0  0
    6.5000   -1.8553    4.8606 H   0  0  0  0  0  0  0  0  0  0  0  0
  1  2  1  0  0  0  0
  1  3  2  0  0  0  0
  2  4  2  0  0  0  0
  3  5  1  0  0  0  0
  4  6  1  0  0  0  0
  5  6  1  0  0  0  0
  5  7  2  0  0  0  0
  6 12  2  0  0  0  0
  7  8  1  0  0  0  0
  7 13  1  0  0  0  0
  8 14  2  0  0  0  0
  8 15  1  0  0  0  0
  9 11  1  0  0  0  0
 10 13  1  0  0  0  0
 11 15  1  0  0  0  0
 12 13  1  0  0  0  0
  1 16  1  0  0  0  0
  2 17  1  0  0  0  0
  3 18  1  0  0  0  0
  4 19  1  0  0  0  0
  9 20  1  0  0  0  0
  9 21  1  0  0  0  0
  9 22  1  0  0  0  0
 10 23  1  0  0  0  0
 10 24  1  0  0  0  0
 10 25  1  0  0  0  0
 11 26  1  0  0  0  0
 11 27  1  0  0  0  0
M  END
$$$$
frag.vs.181
  -OEChem-01121112263D

 21 22  0     0  0  0  0  0  0999 V2000
   -0.1460    0.3043    1.0323 C   0  0  0  0  0  0  0  0  0  0  0  0
   -1.3008   -0.0819    1.7163 C   0  0  0  0  0  0  0  0  0  0  0  0
    0.8146    1.0774    1.6732 C   0  0  0  0  0  0  0  0  0  0  0  0
   -0.7689    1.4441    5.0101 C   0  0  0  0  0  0  0  0  0  0  0  0
   -0.5454    1.0729    3.6841 C   0  0  0  0  0  0  0  0  0  0  0  0
   -1.5196    0.2911    3.0399 C   0  0  0  0  0  0  0  0  0  0  0  0
    0.6169    1.4619    2.9968 C   0  0  0  0  0  0  0  0  0  0  0  0
   -1.9313    1.0266    5.6208 C   0  0  0  0  0  0  0  0  0  0  0  0
   -2.2127    1.3988    7.0355 C   0  0  0  0  0  0  0  0  0  0  0  0
   -2.6353   -0.0872    3.6866 N   0  0  0  0  0  0  0  0  0  0  0  0
   -2.8509    0.2791    4.9873 N   0  0  0  0  0  0  0  0  0  0  0  0
    1.6178    2.2491    3.6156 N   0  0  0  0  0  0  0  0  0  0  0  0
   -0.0000   -0.0002    0.0001 H   0  0  0  0  0  0  0  0  0  0  0  0
   -2.0399   -0.6871    1.1949 H   0  0  0  0  0  0  0  0  0  0  0  0
    1.7105    1.3734    1.1339 H   0  0  0  0  0  0  0  0  0  0  0  0
   -0.0572    2.0464    5.5671 H   0  0  0  0  0  0  0  0  0  0  0  0
   -2.7599    2.3491    7.0806 H   0  0  0  0  0  0  0  0  0  0  0  0
   -2.8125    0.6294    7.5400 H   0  0  0  0  0  0  0  0  0  0  0  0
   -1.2847    1.5055    7.6134 H   0  0  0  0  0  0  0  0  0  0  0  0
    2.4478    2.4625    3.1055 H   0  0  0  0  0  0  0  0  0  0  0  0
    1.5136    2.4930    4.5771 H   0  0  0  0  0  0  0  0  0  0  0  0
  1  2  2  0  0  0  0
  1  3  1  0  0  0  0
  2  6  1  0  0  0  0
  3  7  2  0  0  0  0
  4  5  2  0  0  0  0
  4  8  1  0  0  0  0
  5  6  1  0  0  0  0
  5  7  1  0  0  0  0
  6 10  2  0  0  0  0
  7 12  1  0  0  0  0
  8  9  1  0  0  0  0
  8 11  2  0  0  0  0
 10 11  1  0  0  0  0
  1 13  1  0  0  0  0
  2 14  1  0  0  0  0
  3 15  1  0  0  0  0
  4 16  1  0  0  0  0
  9 17  1  0  0  0  0
  9 18  1  0  0  0  0
  9 19  1  0  0  0  0
 12 20  1  0  0  0  0
 12 21  1  0  0  0  0
M  END
$$$$
frag.vs.182
  -OEChem-01121112263D

 17 18  0     0  0  0  0  0  0999 V2000
    1.7274   -0.8873   -0.9456 C   0  0  0  0  0  0  0  0  0  0  0  0
    2.3912   -2.0259   -1.4374 C   0  0  0  0  0  0  0  0  0  0  0  0
   -0.3008   -2.1200   -0.2022 C   0  0  0  0  0  0  0  0  0  0  0  0
    0.4378   -0.9324   -0.3538 C   0  0  0  0  0  0  0  0  0  0  0  0
    1.6696   -3.2254   -1.2956 C   0  0  0  0  0  0  0  0  0  0  0  0
    0.3452   -3.2717   -0.6879 C   0  0  0  0  0  0  0  0  0  0  0  0
   -0.1663    0.3481    0.1331 C   0  0  0  0  0  0  0  0  0  0  0  0
    2.0087   -4.4701   -1.6536 N   0  0  0  0  0  0  0  0  0  0  0  0
   -0.0749   -4.5430   -0.6976 N   0  0  0  0  0  0  0  0  0  0  0  0
    0.9423   -5.2734   -1.2877 O   0  0  0  0  0  0  0  0  0  0  0  0
    0.4668    0.7313    1.3455 O   0  0  0  0  0  0  0  0  0  0  0  0
    2.2352    0.0736   -1.0266 H   0  0  0  0  0  0  0  0  0  0  0  0
    3.3751   -1.9721   -1.8858 H   0  0  0  0  0  0  0  0  0  0  0  0
   -1.2844   -2.1444    0.2507 H   0  0  0  0  0  0  0  0  0  0  0  0
   -0.0381    1.1505   -0.6032 H   0  0  0  0  0  0  0  0  0  0  0  0
   -1.2413    0.2295    0.3137 H   0  0  0  0  0  0  0  0  0  0  0  0
    0.0508    1.5617    1.6294 H   0  0  0  0  0  0  0  0  0  0  0  0
  1  2  2  0  0  0  0
  1  4  1  0  0  0  0
  2  5  1  0  0  0  0
  3  4  2  0  0  0  0
  3  6  1  0  0  0  0
  4  7  1  0  0  0  0
  5  6  1  0  0  0  0
  5  8  2  0  0  0  0
  6  9  2  0  0  0  0
  7 11  1  0  0  0  0
  8 10  1  0  0  0  0
  9 10  1  0  0  0  0
  1 12  1  0  0  0  0
  2 13  1  0  0  0  0
  3 14  1  0  0  0  0
  7 15  1  0  0  0  0
  7 16  1  0  0  0  0
 11 17  1  0  0  0  0
M  END
$$$$
frag.vs.183
  -OEChem-01121112263D

 14 15  0     0  0  0  0  0  0999 V2000
    2.3912   -2.0259   -1.4374 C   0  0  0  0  0  0  0  0  0  0  0  0
    1.7274   -0.8873   -0.9456 C   0  0  0  0  0  0  0  0  0  0  0  0
   -0.3008   -2.1200   -0.2022 C   0  0  0  0  0  0  0  0  0  0  0  0
    1.6696   -3.2254   -1.2956 C   0  0  0  0  0  0  0  0  0  0  0  0
    0.3452   -3.2717   -0.6879 C   0  0  0  0  0  0  0  0  0  0  0  0
    0.4378   -0.9324   -0.3538 C   0  0  0  0  0  0  0  0  0  0  0  0
    2.0087   -4.4701   -1.6536 N   0  0  0  0  0  0  0  0  0  0  0  0
   -0.0749   -4.5430   -0.6976 N   0  0  0  0  0  0  0  0  0  0  0  0
    0.9423   -5.2734   -1.2877 O   0  0  0  0  0  0  0  0  0  0  0  0
   -0.1134    0.2390    0.0913 O   0  0  0  0  0  0  0  0  0  0  0  0
    3.3753   -1.9723   -1.8851 H   0  0  0  0  0  0  0  0  0  0  0  0
    2.2328    0.0752   -1.0230 H   0  0  0  0  0  0  0  0  0  0  0  0
   -1.2834   -2.1415    0.2520 H   0  0  0  0  0  0  0  0  0  0  0  0
    0.4962    0.9724   -0.0735 H   0  0  0  0  0  0  0  0  0  0  0  0
  1  2  2  0  0  0  0
  1  4  1  0  0  0  0
  2  6  1  0  0  0  0
  3  5  1  0  0  0  0
  3  6  2  0  0  0  0
  4  5  1  0  0  0  0
  4  7  2  0  0  0  0
  5  8  2  0  0  0  0
  6 10  1  0  0  0  0
  7  9  1  0  0  0  0
  8  9  1  0  0  0  0
  1 11  1  0  0  0  0
  2 12  1  0  0  0  0
  3 13  1  0  0  0  0
 10 14  1  0  0  0  0
M  END
$$$$
frag.vs.184
  -OEChem-01121112263D

 17 18  0     0  0  0  0  0  0999 V2000
    1.7274   -0.8873   -0.9456 C   0  0  0  0  0  0  0  0  0  0  0  0
    0.4378   -0.9324   -0.3538 C   0  0  0  0  0  0  0  0  0  0  0  0
    2.3912   -2.0259   -1.4374 C   0  0  0  0  0  0  0  0  0  0  0  0
   -0.3008   -2.1200   -0.2022 C   0  0  0  0  0  0  0  0  0  0  0  0
    1.6696   -3.2254   -1.2956 C   0  0  0  0  0  0  0  0  0  0  0  0
    0.3452   -3.2717   -0.6879 C   0  0  0  0  0  0  0  0  0  0  0  0
   -1.6497   -2.1036    0.4271 C   0  0  0  0  0  0  0  0  0  0  0  0
    2.0087   -4.4701   -1.6536 N   0  0  0  0  0  0  0  0  0  0  0  0
   -0.0749   -4.5430   -0.6976 N   0  0  0  0  0  0  0  0  0  0  0  0
    0.9423   -5.2734   -1.2877 O   0  0  0  0  0  0  0  0  0  0  0  0
   -1.5154   -1.9449    1.8351 O   0  0  0  0  0  0  0  0  0  0  0  0
    2.2264    0.0778   -1.0219 H   0  0  0  0  0  0  0  0  0  0  0  0
    0.0077    0.0055   -0.0028 H   0  0  0  0  0  0  0  0  0  0  0  0
    3.3751   -1.9720   -1.8858 H   0  0  0  0  0  0  0  0  0  0  0  0
   -2.2656   -1.2788    0.0402 H   0  0  0  0  0  0  0  0  0  0  0  0
   -2.1943   -3.0382    0.2296 H   0  0  0  0  0  0  0  0  0  0  0  0
   -2.4139   -1.9397    2.2013 H   0  0  0  0  0  0  0  0  0  0  0  0
  1  2  1  0  0  0  0
  1  3  2  0  0  0  0
  2  4  2  0  0  0  0
  3  5  1  0  0  0  0
  4  6  1  0  0  0  0
  4  7  1  0  0  0  0
  5  6  1  0  0  0  0
  5  8  2  0  0  0  0
  6  9  2  0  0  0  0
  7 11  1  0  0  0  0
  8 10  1  0  0  0  0
  9 10  1  0  0  0  0
  1 12  1  0  0  0  0
  2 13  1  0  0  0  0
  3 14  1  0  0  0  0
  7 15  1  0  0  0  0
  7 16  1  0  0  0  0
 11 17  1  0  0  0  0
M  END
$$$$
frag.vs.185
  -OEChem-01121112263D

 15 16  0     0  0  0  0  0  0999 V2000
    1.7274   -0.8873   -0.9456 C   0  0  0  0  0  0  0  0  0  0  0  0
    2.3912   -2.0259   -1.4374 C   0  0  0  0  0  0  0  0  0  0  0  0
    0.4378   -0.9324   -0.3538 C   0  0  0  0  0  0  0  0  0  0  0  0
    1.6696   -3.2254   -1.2956 C   0  0  0  0  0  0  0  0  0  0  0  0
    0.3452   -3.2717   -0.6879 C   0  0  0  0  0  0  0  0  0  0  0  0
   -0.3008   -2.1200   -0.2022 C   0  0  0  0  0  0  0  0  0  0  0  0
    2.0087   -4.4701   -1.6536 N   0  0  0  0  0  0  0  0  0  0  0  0
   -0.0749   -4.5430   -0.6976 N   0  0  0  0  0  0  0  0  0  0  0  0
   -1.5723   -2.1185    0.3882 N   0  0  0  0  0  0  0  0  0  0  0  0
    0.9423   -5.2734   -1.2877 O   0  0  0  0  0  0  0  0  0  0  0  0
    2.2268    0.0778   -1.0216 H   0  0  0  0  0  0  0  0  0  0  0  0
    3.3747   -1.9721   -1.8862 H   0  0  0  0  0  0  0  0  0  0  0  0
    0.0094    0.0067   -0.0030 H   0  0  0  0  0  0  0  0  0  0  0  0
   -1.9488   -1.2625    0.7539 H   0  0  0  0  0  0  0  0  0  0  0  0
   -2.0563   -2.9874    0.5260 H   0  0  0  0  0  0  0  0  0  0  0  0
  1  2  2  0  0  0  0
  1  3  1  0  0  0  0
  2  4  1  0  0  0  0
  3  6  2  0  0  0  0
  4  5  1  0  0  0  0
  4  7  2  0  0  0  0
  5  6  1  0  0  0  0
  5  8  2  0  0  0  0
  6  9  1  0  0  0  0
  7 10  1  0  0  0  0
  8 10  1  0  0  0  0
  1 11  1  0  0  0  0
  2 12  1  0  0  0  0
  3 13  1  0  0  0  0
  9 14  1  0  0  0  0
  9 15  1  0  0  0  0
M  END
$$$$
frag.vs.186
  -OEChem-01121112263D

 16 17  0     0  0  0  0  0  0999 V2000
    1.8307   -0.8841   -0.7173 C   0  0  0  0  0  0  0  0  0  0  0  0
    2.5401   -2.0115   -1.1649 C   0  0  0  0  0  0  0  0  0  0  0  0
   -0.3069   -2.0952   -0.3649 C   0  0  0  0  0  0  0  0  0  0  0  0
    0.4692   -0.9241   -0.3348 C   0  0  0  0  0  0  0  0  0  0  0  0
    1.8081   -3.2221   -1.2164 C   0  0  0  0  0  0  0  0  0  0  0  0
    0.3560   -3.2648   -0.8082 C   0  0  0  0  0  0  0  0  0  0  0  0
   -0.1610    0.3104    0.1131 C   0  0  0  0  0  0  0  0  0  0  0  0
    2.2784   -4.4166   -1.6099 N   0  0  0  0  0  0  0  0  0  0  0  0
   -0.1844   -4.4892   -0.9174 N   0  0  0  0  0  0  0  0  0  0  0  0
    0.4163    1.2404    0.6831 O   0  0  0  0  0  0  0  0  0  0  0  0
   -1.4918    0.3441   -0.1668 O   0  0  0  0  0  0  0  0  0  0  0  0
    1.0170   -5.4887   -1.4786 S   0  0  0  0  0  0  0  0  0  0  0  0
    2.3664    0.0641   -0.6658 H   0  0  0  0  0  0  0  0  0  0  0  0
    3.5835   -1.9484   -1.4513 H   0  0  0  0  0  0  0  0  0  0  0  0
   -1.3498   -2.1062   -0.0672 H   0  0  0  0  0  0  0  0  0  0  0  0
   -1.9255    1.1724    0.1302 H   0  0  0  0  0  0  0  0  0  0  0  0
  1  2  2  0  0  0  0
  1  4  1  0  0  0  0
  2  5  1  0  0  0  0
  3  4  2  0  0  0  0
  3  6  1  0  0  0  0
  4  7  1  0  0  0  0
  5  6  1  0  0  0  0
  5  8  2  0  0  0  0
  6  9  2  0  0  0  0
  7 10  2  0  0  0  0
  7 11  1  0  0  0  0
  8 12  1  0  0  0  0
  9 12  1  0  0  0  0
  1 13  1  0  0  0  0
  2 14  1  0  0  0  0
  3 15  1  0  0  0  0
 11 16  1  0  0  0  0
M  END
$$$$
frag.vs.187
  -OEChem-01121112263D

 17 18  0     0  0  0  0  0  0999 V2000
    1.8307   -0.8841   -0.7173 C   0  0  0  0  0  0  0  0  0  0  0  0
    2.5401   -2.0115   -1.1649 C   0  0  0  0  0  0  0  0  0  0  0  0
   -0.3069   -2.0952   -0.3649 C   0  0  0  0  0  0  0  0  0  0  0  0
    0.4692   -0.9241   -0.3348 C   0  0  0  0  0  0  0  0  0  0  0  0
    1.8081   -3.2221   -1.2164 C   0  0  0  0  0  0  0  0  0  0  0  0
    0.3560   -3.2648   -0.8082 C   0  0  0  0  0  0  0  0  0  0  0  0
   -0.1766    0.3450    0.1286 C   0  0  0  0  0  0  0  0  0  0  0  0
    2.2784   -4.4166   -1.6099 N   0  0  0  0  0  0  0  0  0  0  0  0
   -0.1844   -4.4892   -0.9174 N   0  0  0  0  0  0  0  0  0  0  0  0
    0.2696    0.6420    1.4440 O   0  0  0  0  0  0  0  0  0  0  0  0
    1.0170   -5.4887   -1.4786 S   0  0  0  0  0  0  0  0  0  0  0  0
    2.3634    0.0652   -0.6656 H   0  0  0  0  0  0  0  0  0  0  0  0
    3.5835   -1.9485   -1.4514 H   0  0  0  0  0  0  0  0  0  0  0  0
   -1.3494   -2.1044   -0.0663 H   0  0  0  0  0  0  0  0  0  0  0  0
    0.0803    1.1824   -0.5309 H   0  0  0  0  0  0  0  0  0  0  0  0
   -1.2687    0.2480    0.1353 H   0  0  0  0  0  0  0  0  0  0  0  0
   -0.1680    1.4673    1.7096 H   0  0  0  0  0  0  0  0  0  0  0  0
  1  2  2  0  0  0  0
  1  4  1  0  0  0  0
  2  5  1  0  0  0  0
  3  4  2  0  0  0  0
  3  6  1  0  0  0  0
  4  7  1  0  0  0  0
  5  6  1  0  0  0  0
  5  8  2  0  0  0  0
  6  9  2  0  0  0  0
  7 10  1  0  0  0  0
  8 11  1  0  0  0  0
  9 11  1  0  0  0  0
  1 12  1  0  0  0  0
  2 13  1  0  0  0  0
  3 14  1  0  0  0  0
  7 15  1  0  0  0  0
  7 16  1  0  0  0  0
 10 17  1  0  0  0  0
M  END
$$$$
frag.vs.188
  -OEChem-01121112263D

 22 23  0     0  0  0  0  0  0999 V2000
   -0.4431    0.8856    0.4473 C   0  0  0  0  0  0  0  0  0  0  0  0
   -1.8068    0.9040    0.7456 C   0  0  0  0  0  0  0  0  0  0  0  0
   -0.1807    3.1490    1.3062 C   0  0  0  0  0  0  0  0  0  0  0  0
   -1.5345    3.1578    1.5867 C   0  0  0  0  0  0  0  0  0  0  0  0
    0.3647    2.0013    0.7245 C   0  0  0  0  0  0  0  0  0  0  0  0
   -2.3262    2.0536    1.3083 C   0  0  0  0  0  0  0  0  0  0  0  0
   -2.3549    4.1954    2.2482 C   0  0  0  0  0  0  0  0  0  0  0  0
   -3.7446    3.6404    1.9321 C   0  0  0  0  0  0  0  0  0  0  0  0
    1.8213    1.9556    0.4025 C   0  0  0  0  0  0  0  0  0  0  0  0
    2.5644    1.1573    1.3435 N   0  0  0  0  0  0  0  0  0  0  0  0
   -3.6401    2.2216    1.6648 O   0  0  0  0  0  0  0  0  0  0  0  0
   -0.0082   -0.0045   -0.0007 H   0  0  0  0  0  0  0  0  0  0  0  0
   -2.4319    0.0432    0.5368 H   0  0  0  0  0  0  0  0  0  0  0  0
    0.4394    4.0089    1.5386 H   0  0  0  0  0  0  0  0  0  0  0  0
   -2.1665    4.1975    3.3265 H   0  0  0  0  0  0  0  0  0  0  0  0
   -2.2144    5.1995    1.8403 H   0  0  0  0  0  0  0  0  0  0  0  0
   -4.4406    3.8020    2.7619 H   0  0  0  0  0  0  0  0  0  0  0  0
   -4.1669    4.1176    1.0384 H   0  0  0  0  0  0  0  0  0  0  0  0
    1.9917    1.5327   -0.5971 H   0  0  0  0  0  0  0  0  0  0  0  0
    2.2646    2.9604    0.4024 H   0  0  0  0  0  0  0  0  0  0  0  0
    3.5424    1.3497    1.4829 H   0  0  0  0  0  0  0  0  0  0  0  0
    2.1576    0.3041    1.6893 H   0  0  0  0  0  0  0  0  0  0  0  0
  1  2  1  0  0  0  0
  1  5  2  0  0  0  0
  2  6  2  0  0  0  0
  3  4  2  0  0  0  0
  3  5  1  0  0  0  0
  4  6  1  0  0  0  0
  4  7  1  0  0  0  0
  5  9  1  0  0  0  0
  6 11  1  0  0  0  0
  7  8  1  0  0  0  0
  8 11  1  0  0  0  0
  9 10  1  0  0  0  0
  1 12  1  0  0  0  0
  2 13  1  0  0  0  0
  3 14  1  0  0  0  0
  7 15  1  0  0  0  0
  7 16  1  0  0  0  0
  8 17  1  0  0  0  0
  8 18  1  0  0  0  0
  9 19  1  0  0  0  0
  9 20  1  0  0  0  0
 10 21  1  0  0  0  0
 10 22  1  0  0  0  0
M  END
$$$$
frag.vs.189
  -OEChem-01121112263D

 19 20  0     0  0  0  0  0  0999 V2000
   -0.9455    0.4696   -0.2604 C   0  0  0  0  0  0  0  0  0  0  0  0
   -2.1012   -0.3134   -0.3361 C   0  0  0  0  0  0  0  0  0  0  0  0
   -4.7209    1.9732   -1.2341 C   0  0  0  0  0  0  0  0  0  0  0  0
   -2.1827    2.4837   -0.8519 C   0  0  0  0  0  0  0  0  0  0  0  0
   -5.3737    0.7659   -1.1396 C   0  0  0  0  0  0  0  0  0  0  0  0
   -3.3574    1.7156   -0.9335 C   0  0  0  0  0  0  0  0  0  0  0  0
   -0.9828    1.8432   -0.5132 C   0  0  0  0  0  0  0  0  0  0  0  0
   -3.2786    0.3511   -0.6747 C   0  0  0  0  0  0  0  0  0  0  0  0
    0.2737    2.6442   -0.4190 C   0  0  0  0  0  0  0  0  0  0  0  0
   -4.5075   -0.2244   -0.8009 O   0  0  0  0  0  0  0  0  0  0  0  0
    0.6079    2.8364    0.9495 O   0  0  0  0  0  0  0  0  0  0  0  0
   -0.0043   -0.0096    0.0008 H   0  0  0  0  0  0  0  0  0  0  0  0
   -2.0804   -1.3789   -0.1409 H   0  0  0  0  0  0  0  0  0  0  0  0
   -5.1715    2.9222   -1.4876 H   0  0  0  0  0  0  0  0  0  0  0  0
   -2.2064    3.5524   -1.0451 H   0  0  0  0  0  0  0  0  0  0  0  0
   -6.4006    0.4605   -1.2779 H   0  0  0  0  0  0  0  0  0  0  0  0
    1.1095    2.1357   -0.9175 H   0  0  0  0  0  0  0  0  0  0  0  0
    0.1530    3.6261   -0.8953 H   0  0  0  0  0  0  0  0  0  0  0  0
    1.4261    3.3586    0.9668 H   0  0  0  0  0  0  0  0  0  0  0  0
  1  2  1  0  0  0  0
  1  7  2  0  0  0  0
  2  8  2  0  0  0  0
  3  5  2  0  0  0  0
  3  6  1  0  0  0  0
  4  6  2  0  0  0  0
  4  7  1  0  0  0  0
  5 10  1  0  0  0  0
  6  8  1  0  0  0  0
  7  9  1  0  0  0  0
  8 10  1  0  0  0  0
  9 11  1  0  0  0  0
  1 12  1  0  0  0  0
  2 13  1  0  0  0  0
  3 14  1  0  0  0  0
  4 15  1  0  0  0  0
  5 16  1  0  0  0  0
  9 17  1  0  0  0  0
  9 18  1  0  0  0  0
 11 19  1  0  0  0  0
M  END
$$$$
frag.vs.190
  -OEChem-01121112263D

 17 18  0     0  0  0  0  0  0999 V2000
    2.9899   -0.7694    1.4555 C   0  0  0  0  0  0  0  0  0  0  0  0
    2.0485   -0.5121    0.4581 C   0  0  0  0  0  0  0  0  0  0  0  0
    0.3098   -0.1342    2.1288 C   0  0  0  0  0  0  0  0  0  0  0  0
    2.5511   -0.6987    2.7613 C   0  0  0  0  0  0  0  0  0  0  0  0
    1.2511   -0.3910    3.1061 C   0  0  0  0  0  0  0  0  0  0  0  0
    0.7179   -0.1968    0.7918 C   0  0  0  0  0  0  0  0  0  0  0  0
    3.2449   -0.9026    4.0033 C   0  0  0  0  0  0  0  0  0  0  0  0
    2.2460   -0.6892    5.1054 C   0  0  0  0  0  0  0  0  0  0  0  0
    4.4193   -1.1926    4.1152 O   0  0  0  0  0  0  0  0  0  0  0  0
    0.9958   -0.3662    4.4522 O   0  0  0  0  0  0  0  0  0  0  0  0
   -0.1829    0.0504   -0.2008 O   0  0  0  0  0  0  0  0  0  0  0  0
    4.0159   -1.0128    1.2067 H   0  0  0  0  0  0  0  0  0  0  0  0
    2.3495   -0.5566   -0.5857 H   0  0  0  0  0  0  0  0  0  0  0  0
   -0.7152    0.1087    2.3884 H   0  0  0  0  0  0  0  0  0  0  0  0
    2.1139   -1.6040    5.6890 H   0  0  0  0  0  0  0  0  0  0  0  0
    2.5425    0.1519    5.7374 H   0  0  0  0  0  0  0  0  0  0  0  0
    0.2444   -0.0298   -1.0677 H   0  0  0  0  0  0  0  0  0  0  0  0
  1  2  1  0  0  0  0
  1  4  2  0  0  0  0
  2  6  2  0  0  0  0
  3  5  2  0  0  0  0
  3  6  1  0  0  0  0
  4  5  1  0  0  0  0
  4  7  1  0  0  0  0
  5 10  1  0  0  0  0
  6 11  1  0  0  0  0
  7  8  1  0  0  0  0
  7  9  2  0  0  0  0
  8 10  1  0  0  0  0
  1 12  1  0  0  0  0
  2 13  1  0  0  0  0
  3 14  1  0  0  0  0
  8 15  1  0  0  0  0
  8 16  1  0  0  0  0
 11 17  1  0  0  0  0
M  END
$$$$
frag.vs.191
  -OEChem-01121112263D

 26 27  0     0  0  0  0  0  0999 V2000
    2.0839    0.3075    0.4417 C   0  0  0  0  0  0  0  0  0  0  0  0
    3.0153    1.0844    1.1301 C   0  0  0  0  0  0  0  0  0  0  0  0
    0.2981    1.6540    1.3470 C   0  0  0  0  0  0  0  0  0  0  0  0
    0.7261    0.5990    0.5416 C   0  0  0  0  0  0  0  0  0  0  0  0
    2.5950    2.1611    1.9193 C   0  0  0  0  0  0  0  0  0  0  0  0
    1.2251    2.4215    2.0616 C   0  0  0  0  0  0  0  0  0  0  0  0
    2.5420    4.5921    3.8663 C   0  0  0  0  0  0  0  0  0  0  0  0
    3.3427    4.2762    2.6124 C   0  0  0  0  0  0  0  0  0  0  0  0
    1.3885    3.6225    4.0726 C   0  0  0  0  0  0  0  0  0  0  0  0
   -0.2705   -0.2232   -0.2034 C   0  0  0  0  0  0  0  0  0  0  0  0
   -0.9813   -1.1347    0.6568 N   0  0  0  0  0  0  0  0  0  0  0  0
    3.6061    2.8770    2.5092 O   0  0  0  0  0  0  0  0  0  0  0  0
    0.6795    3.4000    2.8537 O   0  0  0  0  0  0  0  0  0  0  0  0
    2.4280   -0.5171   -0.1771 H   0  0  0  0  0  0  0  0  0  0  0  0
    4.0740    0.8579    1.0298 H   0  0  0  0  0  0  0  0  0  0  0  0
   -0.7649    1.8684    1.4362 H   0  0  0  0  0  0  0  0  0  0  0  0
    3.1900    4.5530    4.7494 H   0  0  0  0  0  0  0  0  0  0  0  0
    2.1649    5.6186    3.7877 H   0  0  0  0  0  0  0  0  0  0  0  0
    2.8473    4.6529    1.7072 H   0  0  0  0  0  0  0  0  0  0  0  0
    4.3094    4.7892    2.6644 H   0  0  0  0  0  0  0  0  0  0  0  0
    1.7269    2.6742    4.5119 H   0  0  0  0  0  0  0  0  0  0  0  0
    0.6809    4.0531    4.7900 H   0  0  0  0  0  0  0  0  0  0  0  0
   -1.0172    0.4128   -0.6992 H   0  0  0  0  0  0  0  0  0  0  0  0
    0.2087   -0.8218   -0.9903 H   0  0  0  0  0  0  0  0  0  0  0  0
   -1.3665   -1.9772    0.2641 H   0  0  0  0  0  0  0  0  0  0  0  0
   -1.2563   -0.8264    1.5744 H   0  0  0  0  0  0  0  0  0  0  0  0
  1  2  1  0  0  0  0
  1  4  2  0  0  0  0
  2  5  2  0  0  0  0
  3  4  1  0  0  0  0
  3  6  2  0  0  0  0
  4 10  1  0  0  0  0
  5  6  1  0  0  0  0
  5 12  1  0  0  0  0
  6 13  1  0  0  0  0
  7  8  1  0  0  0  0
  7  9  1  0  0  0  0
  8 12  1  0  0  0  0
  9 13  1  0  0  0  0
 10 11  1  0  0  0  0
  1 14  1  0  0  0  0
  2 15  1  0  0  0  0
  3 16  1  0  0  0  0
  7 17  1  0  0  0  0
  7 18  1  0  0  0  0
  8 19  1  0  0  0  0
  8 20  1  0  0  0  0
  9 21  1  0  0  0  0
  9 22  1  0  0  0  0
 10 23  1  0  0  0  0
 10 24  1  0  0  0  0
 11 25  1  0  0  0  0
 11 26  1  0  0  0  0
M  END
$$$$
frag.vs.192
  -OEChem-01121112263D

 25 26  0     0  0  0  0  0  0999 V2000
    2.0839    0.3075    0.4417 C   0  0  0  0  0  0  0  0  0  0  0  0
    3.0153    1.0844    1.1301 C   0  0  0  0  0  0  0  0  0  0  0  0
    0.2981    1.6540    1.3470 C   0  0  0  0  0  0  0  0  0  0  0  0
    0.7261    0.5990    0.5416 C   0  0  0  0  0  0  0  0  0  0  0  0
    2.5950    2.1611    1.9193 C   0  0  0  0  0  0  0  0  0  0  0  0
    1.2251    2.4215    2.0616 C   0  0  0  0  0  0  0  0  0  0  0  0
    2.5420    4.5921    3.8663 C   0  0  0  0  0  0  0  0  0  0  0  0
    3.3427    4.2762    2.6124 C   0  0  0  0  0  0  0  0  0  0  0  0
    1.3885    3.6225    4.0726 C   0  0  0  0  0  0  0  0  0  0  0  0
   -0.2705   -0.2232   -0.2034 C   0  0  0  0  0  0  0  0  0  0  0  0
    3.6061    2.8770    2.5092 O   0  0  0  0  0  0  0  0  0  0  0  0
    0.6795    3.4000    2.8537 O   0  0  0  0  0  0  0  0  0  0  0  0
   -0.9387   -1.0917    0.7033 O   0  0  0  0  0  0  0  0  0  0  0  0
    2.4280   -0.5171   -0.1771 H   0  0  0  0  0  0  0  0  0  0  0  0
    4.0740    0.8579    1.0298 H   0  0  0  0  0  0  0  0  0  0  0  0
   -0.7649    1.8684    1.4362 H   0  0  0  0  0  0  0  0  0  0  0  0
    3.1900    4.5530    4.7494 H   0  0  0  0  0  0  0  0  0  0  0  0
    2.1649    5.6186    3.7877 H   0  0  0  0  0  0  0  0  0  0  0  0
    2.8473    4.6529    1.7072 H   0  0  0  0  0  0  0  0  0  0  0  0
    4.3094    4.7892    2.6644 H   0  0  0  0  0  0  0  0  0  0  0  0
    1.7269    2.6742    4.5119 H   0  0  0  0  0  0  0  0  0  0  0  0
    0.6809    4.0531    4.7900 H   0  0  0  0  0  0  0  0  0  0  0  0
   -1.0193    0.4082   -0.7009 H   0  0  0  0  0  0  0  0  0  0  0  0
    0.2162   -0.8297   -0.9794 H   0  0  0  0  0  0  0  0  0  0  0  0
   -1.5746   -1.6056    0.1803 H   0  0  0  0  0  0  0  0  0  0  0  0
  1  2  1  0  0  0  0
  1  4  2  0  0  0  0
  2  5  2  0  0  0  0
  3  4  1  0  0  0  0
  3  6  2  0  0  0  0
  4 10  1  0  0  0  0
  5  6  1  0  0  0  0
  5 11  1  0  0  0  0
  6 12  1  0  0  0  0
  7  8  1  0  0  0  0
  7  9  1  0  0  0  0
  8 11  1  0  0  0  0
  9 12  1  0  0  0  0
 10 13  1  0  0  0  0
  1 14  1  0  0  0  0
  2 15  1  0  0  0  0
  3 16  1  0  0  0  0
  7 17  1  0  0  0  0
  7 18  1  0  0  0  0
  8 19  1  0  0  0  0
  8 20  1  0  0  0  0
  9 21  1  0  0  0  0
  9 22  1  0  0  0  0
 10 23  1  0  0  0  0
 10 24  1  0  0  0  0
 13 25  1  0  0  0  0
M  END
$$$$
frag.vs.193
  -OEChem-01121112263D

 23 24  0     0  0  0  0  0  0999 V2000
    0.2979   -1.1769    1.7792 C   0  0  0  0  0  0  0  0  0  0  0  0
    0.5196   -2.4525    2.2989 C   0  0  0  0  0  0  0  0  0  0  0  0
    0.2866   -2.0843   -0.4619 C   0  0  0  0  0  0  0  0  0  0  0  0
    0.1764   -0.9939    0.4014 C   0  0  0  0  0  0  0  0  0  0  0  0
    0.6167   -3.5455    1.4372 C   0  0  0  0  0  0  0  0  0  0  0  0
    0.5219   -3.3582    0.0560 C   0  0  0  0  0  0  0  0  0  0  0  0
    0.5543   -5.8390    1.0877 C   0  0  0  0  0  0  0  0  0  0  0  0
    1.2151   -5.5522   -0.2464 C   0  0  0  0  0  0  0  0  0  0  0  0
   -0.0670    0.3706   -0.1496 C   0  0  0  0  0  0  0  0  0  0  0  0
    1.1141    0.9379   -0.7490 N   0  0  0  0  0  0  0  0  0  0  0  0
    0.8145   -4.7756    2.0082 O   0  0  0  0  0  0  0  0  0  0  0  0
    0.6415   -4.3858   -0.8429 O   0  0  0  0  0  0  0  0  0  0  0  0
    0.2167   -0.3309    2.4566 H   0  0  0  0  0  0  0  0  0  0  0  0
    0.6044   -2.5874    3.3737 H   0  0  0  0  0  0  0  0  0  0  0  0
    0.2003   -1.9408   -1.5363 H   0  0  0  0  0  0  0  0  0  0  0  0
   -0.5317   -5.9548    0.9843 H   0  0  0  0  0  0  0  0  0  0  0  0
    0.9564   -6.7601    1.5210 H   0  0  0  0  0  0  0  0  0  0  0  0
    2.2953   -5.3945   -0.1368 H   0  0  0  0  0  0  0  0  0  0  0  0
    1.0601   -6.3887   -0.9350 H   0  0  0  0  0  0  0  0  0  0  0  0
   -0.8515    0.3528   -0.9190 H   0  0  0  0  0  0  0  0  0  0  0  0
   -0.4043    1.0661    0.6312 H   0  0  0  0  0  0  0  0  0  0  0  0
    1.2055    1.9389   -0.7958 H   0  0  0  0  0  0  0  0  0  0  0  0
    1.7228    0.3434   -1.2863 H   0  0  0  0  0  0  0  0  0  0  0  0
  1  2  1  0  0  0  0
  1  4  2  0  0  0  0
  2  5  2  0  0  0  0
  3  4  1  0  0  0  0
  3  6  2  0  0  0  0
  4  9  1  0  0  0  0
  5  6  1  0  0  0  0
  5 11  1  0  0  0  0
  6 12  1  0  0  0  0
  7  8  1  0  0  0  0
  7 11  1  0  0  0  0
  8 12  1  0  0  0  0
  9 10  1  0  0  0  0
  1 13  1  0  0  0  0
  2 14  1  0  0  0  0
  3 15  1  0  0  0  0
  7 16  1  0  0  0  0
  7 17  1  0  0  0  0
  8 18  1  0  0  0  0
  8 19  1  0  0  0  0
  9 20  1  0  0  0  0
  9 21  1  0  0  0  0
 10 22  1  0  0  0  0
 10 23  1  0  0  0  0
M  END
$$$$
frag.vs.194
  -OEChem-01121112263D

 22 23  0     0  0  0  0  0  0999 V2000
    0.2979   -1.1769    1.7792 C   0  0  0  0  0  0  0  0  0  0  0  0
    0.5196   -2.4525    2.2989 C   0  0  0  0  0  0  0  0  0  0  0  0
    0.2866   -2.0843   -0.4619 C   0  0  0  0  0  0  0  0  0  0  0  0
    0.1764   -0.9939    0.4014 C   0  0  0  0  0  0  0  0  0  0  0  0
    0.6167   -3.5455    1.4372 C   0  0  0  0  0  0  0  0  0  0  0  0
    0.5219   -3.3582    0.0560 C   0  0  0  0  0  0  0  0  0  0  0  0
    0.5543   -5.8390    1.0877 C   0  0  0  0  0  0  0  0  0  0  0  0
    1.2151   -5.5522   -0.2464 C   0  0  0  0  0  0  0  0  0  0  0  0
   -0.0670    0.3706   -0.1496 C   0  0  0  0  0  0  0  0  0  0  0  0
    0.8145   -4.7756    2.0082 O   0  0  0  0  0  0  0  0  0  0  0  0
    0.6415   -4.3858   -0.8429 O   0  0  0  0  0  0  0  0  0  0  0  0
    1.1328    0.8662   -0.7307 O   0  0  0  0  0  0  0  0  0  0  0  0
    0.2167   -0.3309    2.4566 H   0  0  0  0  0  0  0  0  0  0  0  0
    0.6044   -2.5874    3.3737 H   0  0  0  0  0  0  0  0  0  0  0  0
    0.2003   -1.9408   -1.5363 H   0  0  0  0  0  0  0  0  0  0  0  0
   -0.5317   -5.9548    0.9843 H   0  0  0  0  0  0  0  0  0  0  0  0
    0.9564   -6.7601    1.5210 H   0  0  0  0  0  0  0  0  0  0  0  0
    2.2953   -5.3945   -0.1368 H   0  0  0  0  0  0  0  0  0  0  0  0
    1.0601   -6.3887   -0.9350 H   0  0  0  0  0  0  0  0  0  0  0  0
   -0.8507    0.3580   -0.9194 H   0  0  0  0  0  0  0  0  0  0  0  0
   -0.3907    1.0646    0.6381 H   0  0  0  0  0  0  0  0  0  0  0  0
    0.9314    1.7510   -1.0751 H   0  0  0  0  0  0  0  0  0  0  0  0
  1  2  1  0  0  0  0
  1  4  2  0  0  0  0
  2  5  2  0  0  0  0
  3  4  1  0  0  0  0
  3  6  2  0  0  0  0
  4  9  1  0  0  0  0
  5  6  1  0  0  0  0
  5 10  1  0  0  0  0
  6 11  1  0  0  0  0
  7  8  1  0  0  0  0
  7 10  1  0  0  0  0
  8 11  1  0  0  0  0
  9 12  1  0  0  0  0
  1 13  1  0  0  0  0
  2 14  1  0  0  0  0
  3 15  1  0  0  0  0
  7 16  1  0  0  0  0
  7 17  1  0  0  0  0
  8 18  1  0  0  0  0
  8 19  1  0  0  0  0
  9 20  1  0  0  0  0
  9 21  1  0  0  0  0
 12 22  1  0  0  0  0
M  END
$$$$
frag.vs.195
  -OEChem-01121112263D

 20 21  0     0  0  0  0  0  0999 V2000
    0.8726    1.2794    1.5062 C   0  0  0  0  0  0  0  0  0  0  0  0
    0.7042    1.9049    2.7438 C   0  0  0  0  0  0  0  0  0  0  0  0
   -1.3491    0.2943    1.6535 C   0  0  0  0  0  0  0  0  0  0  0  0
   -0.1481    0.4787    0.9641 C   0  0  0  0  0  0  0  0  0  0  0  0
   -0.4910    1.7067    3.4041 C   0  0  0  0  0  0  0  0  0  0  0  0
   -1.4901    0.9230    2.8735 C   0  0  0  0  0  0  0  0  0  0  0  0
   -2.1588    1.6916    4.7825 C   0  0  0  0  0  0  0  0  0  0  0  0
    0.0547   -0.1794   -0.3598 C   0  0  0  0  0  0  0  0  0  0  0  0
   -0.0627    0.7484   -1.4555 N   0  0  0  0  0  0  0  0  0  0  0  0
   -0.8328    2.2326    4.6117 O   0  0  0  0  0  0  0  0  0  0  0  0
   -2.5825    0.8600    3.6827 O   0  0  0  0  0  0  0  0  0  0  0  0
    1.8043    1.4176    0.9628 H   0  0  0  0  0  0  0  0  0  0  0  0
    1.4886    2.5233    3.1651 H   0  0  0  0  0  0  0  0  0  0  0  0
   -2.1443   -0.3208    1.2463 H   0  0  0  0  0  0  0  0  0  0  0  0
   -2.1787    1.0948    5.7016 H   0  0  0  0  0  0  0  0  0  0  0  0
   -2.8661    2.5224    4.8868 H   0  0  0  0  0  0  0  0  0  0  0  0
    1.0495   -0.6415   -0.4231 H   0  0  0  0  0  0  0  0  0  0  0  0
   -0.6786   -0.9797   -0.5275 H   0  0  0  0  0  0  0  0  0  0  0  0
   -0.3347    0.4036   -2.3610 H   0  0  0  0  0  0  0  0  0  0  0  0
    0.3194    1.6741   -1.3551 H   0  0  0  0  0  0  0  0  0  0  0  0
  1  2  1  0  0  0  0
  1  4  2  0  0  0  0
  2  5  2  0  0  0  0
  3  4  1  0  0  0  0
  3  6  2  0  0  0  0
  4  8  1  0  0  0  0
  5  6  1  0  0  0  0
  5 10  1  0  0  0  0
  6 11  1  0  0  0  0
  7 10  1  0  0  0  0
  7 11  1  0  0  0  0
  8  9  1  0  0  0  0
  1 12  1  0  0  0  0
  2 13  1  0  0  0  0
  3 14  1  0  0  0  0
  7 15  1  0  0  0  0
  7 16  1  0  0  0  0
  8 17  1  0  0  0  0
  8 18  1  0  0  0  0
  9 19  1  0  0  0  0
  9 20  1  0  0  0  0
M  END
$$$$
frag.vs.196
  -OEChem-01121112263D

 23 24  0     0  0  0  0  0  0999 V2000
   -9.2296   -3.2274    4.6575 C   0  0  0  0  0  0  0  0  0  0  0  0
  -10.2528   -3.5109    3.7641 C   0  0  0  0  0  0  0  0  0  0  0  0
   -8.1914   -2.3669    4.2911 C   0  0  0  0  0  0  0  0  0  0  0  0
  -10.2616   -2.9427    2.4888 C   0  0  0  0  0  0  0  0  0  0  0  0
   -7.2281   -0.8733    2.4069 C   0  0  0  0  0  0  0  0  0  0  0  0
   -8.1715   -1.7747    3.0051 C   0  0  0  0  0  0  0  0  0  0  0  0
   -9.2135   -2.0756    2.1226 C   0  0  0  0  0  0  0  0  0  0  0  0
   -7.5657   -0.5211    1.1217 C   0  0  0  0  0  0  0  0  0  0  0  0
   -6.2776    2.6362   -0.3941 C   0  0  0  0  0  0  0  0  0  0  0  0
   -6.8443    0.3799    0.1967 C   0  0  0  0  0  0  0  0  0  0  0  0
   -7.0102    1.7763    0.5318 N   0  0  0  0  0  0  0  0  0  0  0  0
   -9.0140   -1.2631    0.6148 S   0  0  0  0  0  0  0  0  0  0  0  0
   -9.2340   -3.6746    5.6475 H   0  0  0  0  0  0  0  0  0  0  0  0
  -11.0555   -4.1816    4.0579 H   0  0  0  0  0  0  0  0  0  0  0  0
   -7.3963   -2.1552    5.0017 H   0  0  0  0  0  0  0  0  0  0  0  0
  -11.0671   -3.1700    1.7962 H   0  0  0  0  0  0  0  0  0  0  0  0
   -6.3414   -0.5044    2.9083 H   0  0  0  0  0  0  0  0  0  0  0  0
   -5.2131    2.3886   -0.3743 H   0  0  0  0  0  0  0  0  0  0  0  0
   -6.4001    3.6856   -0.1126 H   0  0  0  0  0  0  0  0  0  0  0  0
   -6.6517    2.5005   -1.4124 H   0  0  0  0  0  0  0  0  0  0  0  0
   -5.7595    0.1777    0.1928 H   0  0  0  0  0  0  0  0  0  0  0  0
   -7.1822    0.2608   -0.8468 H   0  0  0  0  0  0  0  0  0  0  0  0
   -8.0020    2.0258    0.4962 H   0  0  0  0  0  0  0  0  0  0  0  0
  1  2  1  0  0  0  0
  1  3  2  0  0  0  0
  2  4  2  0  0  0  0
  3  6  1  0  0  0  0
  4  7  1  0  0  0  0
  5  6  1  0  0  0  0
  5  8  2  0  0  0  0
  6  7  2  0  0  0  0
  7 12  1  0  0  0  0
  8 10  1  0  0  0  0
  8 12  1  0  0  0  0
  9 11  1  0  0  0  0
 10 11  1  0  0  0  0
  1 13  1  0  0  0  0
  2 14  1  0  0  0  0
  3 15  1  0  0  0  0
  4 16  1  0  0  0  0
  5 17  1  0  0  0  0
  9 18  1  0  0  0  0
  9 19  1  0  0  0  0
  9 20  1  0  0  0  0
 10 21  1  0  0  0  0
 10 22  1  0  0  0  0
 11 23  1  0  0  0  0
M  END
$$$$
frag.vs.197
  -OEChem-01121112263D

 16 17  0     0  0  0  0  0  0999 V2000
    1.6756   -0.7186   -2.8730 C   0  0  0  0  0  0  0  0  0  0  0  0
    1.3776   -0.1269   -1.6421 C   0  0  0  0  0  0  0  0  0  0  0  0
   -0.6742   -1.4085   -1.4795 C   0  0  0  0  0  0  0  0  0  0  0  0
    0.7916   -1.6713   -3.4245 C   0  0  0  0  0  0  0  0  0  0  0  0
    0.2175   -0.4688   -0.9561 C   0  0  0  0  0  0  0  0  0  0  0  0
   -0.3685   -1.9990   -2.7163 C   0  0  0  0  0  0  0  0  0  0  0  0
   -0.0585   -3.1484   -4.8253 C   0  0  0  0  0  0  0  0  0  0  0  0
    0.9552   -2.3379   -4.6301 N   0  0  0  0  0  0  0  0  0  0  0  0
   -0.2010   -3.9445   -5.9182 N   0  0  0  0  0  0  0  0  0  0  0  0
   -0.0497    0.1101    0.2227 F   0  0  0  0  0  0  0  0  0  0  0  0
   -1.2595   -3.1758   -3.6075 S   0  0  0  0  0  0  0  0  0  0  0  0
    2.5853   -0.4440   -3.3995 H   0  0  0  0  0  0  0  0  0  0  0  0
    2.0594    0.6058   -1.2194 H   0  0  0  0  0  0  0  0  0  0  0  0
   -1.5778   -1.6705   -0.9377 H   0  0  0  0  0  0  0  0  0  0  0  0
    0.4707   -3.9210   -6.6930 H   0  0  0  0  0  0  0  0  0  0  0  0
   -1.0330   -4.5289   -6.0538 H   0  0  0  0  0  0  0  0  0  0  0  0
  1  2  1  0  0  0  0
  1  4  2  0  0  0  0
  2  5  2  0  0  0  0
  3  5  1  0  0  0  0
  3  6  2  0  0  0  0
  4  6  1  0  0  0  0
  4  8  1  0  0  0  0
  5 10  1  0  0  0  0
  6 11  1  0  0  0  0
  7  8  2  0  0  0  0
  7  9  1  0  0  0  0
  7 11  1  0  0  0  0
  1 12  1  0  0  0  0
  2 13  1  0  0  0  0
  3 14  1  0  0  0  0
  9 15  1  0  0  0  0
  9 16  1  0  0  0  0
M  END
$$$$
frag.vs.198
  -OEChem-01121112263D

 20 21  0     0  0  0  0  0  0999 V2000
   -2.1248   -0.0264   -0.3346 C   0  0  0  0  0  0  0  0  0  0  0  0
   -0.8772    0.5936   -0.2428 C   0  0  0  0  0  0  0  0  0  0  0  0
   -1.8689    2.7321   -0.7717 C   0  0  0  0  0  0  0  0  0  0  0  0
   -5.4435    1.7834   -1.1782 C   0  0  0  0  0  0  0  0  0  0  0  0
   -3.1479    2.1331   -0.8722 C   0  0  0  0  0  0  0  0  0  0  0  0
   -4.4271    2.7089   -1.1762 C   0  0  0  0  0  0  0  0  0  0  0  0
   -3.2525    0.7565   -0.6503 C   0  0  0  0  0  0  0  0  0  0  0  0
   -0.7482    1.9583   -0.4586 C   0  0  0  0  0  0  0  0  0  0  0  0
   -4.6423    4.1494   -1.4619 C   0  0  0  0  0  0  0  0  0  0  0  0
   -4.5972    4.9641   -0.2709 N   0  0  0  0  0  0  0  0  0  0  0  0
   -4.8813    0.2155   -0.8165 S   0  0  0  0  0  0  0  0  0  0  0  0
    0.9507    2.7781   -0.3309 Br  0  0  0  0  0  0  0  0  0  0  0  0
   -2.2173   -1.0951   -0.1628 H   0  0  0  0  0  0  0  0  0  0  0  0
   -0.0096   -0.0155    0.0002 H   0  0  0  0  0  0  0  0  0  0  0  0
   -1.7655    3.8016   -0.9414 H   0  0  0  0  0  0  0  0  0  0  0  0
   -6.4929    1.9535   -1.3763 H   0  0  0  0  0  0  0  0  0  0  0  0
   -3.8792    4.5419   -2.1527 H   0  0  0  0  0  0  0  0  0  0  0  0
   -5.6176    4.3315   -1.9398 H   0  0  0  0  0  0  0  0  0  0  0  0
   -5.0987    5.8348   -0.2586 H   0  0  0  0  0  0  0  0  0  0  0  0
   -3.9142    4.7538    0.4358 H   0  0  0  0  0  0  0  0  0  0  0  0
  1  2  1  0  0  0  0
  1  7  2  0  0  0  0
  2  8  2  0  0  0  0
  3  5  2  0  0  0  0
  3  8  1  0  0  0  0
  4  6  2  0  0  0  0
  4 11  1  0  0  0  0
  5  6  1  0  0  0  0
  5  7  1  0  0  0  0
  6  9  1  0  0  0  0
  7 11  1  0  0  0  0
  8 12  1  0  0  0  0
  9 10  1  0  0  0  0
  1 13  1  0  0  0  0
  2 14  1  0  0  0  0
  3 15  1  0  0  0  0
  4 16  1  0  0  0  0
  9 17  1  0  0  0  0
  9 18  1  0  0  0  0
 10 19  1  0  0  0  0
 10 20  1  0  0  0  0
M  END
$$$$
frag.vs.199
  -OEChem-01121112263D

 23 24  0     0  0  0  0  0  0999 V2000
    0.2979   -1.1769    1.7792 C   0  0  0  0  0  0  0  0  0  0  0  0
    0.5196   -2.4525    2.2989 C   0  0  0  0  0  0  0  0  0  0  0  0
    0.2866   -2.0843   -0.4619 C   0  0  0  0  0  0  0  0  0  0  0  0
    0.1764   -0.9939    0.4014 C   0  0  0  0  0  0  0  0  0  0  0  0
    0.6167   -3.5455    1.4372 C   0  0  0  0  0  0  0  0  0  0  0  0
    0.5219   -3.3582    0.0560 C   0  0  0  0  0  0  0  0  0  0  0  0
   -0.0595    0.3364   -0.1369 C   0  0  0  0  0  0  0  0  0  0  0  0
    0.5543   -5.8390    1.0877 C   0  0  0  0  0  0  0  0  0  0  0  0
    1.2151   -5.5522   -0.2464 C   0  0  0  0  0  0  0  0  0  0  0  0
   -0.8208    1.3061    0.7195 C   0  0  0  0  0  0  0  0  0  0  0  0
    0.3141    0.7266   -1.2451 O   0  0  0  0  0  0  0  0  0  0  0  0
    0.8145   -4.7756    2.0082 O   0  0  0  0  0  0  0  0  0  0  0  0
    0.6415   -4.3858   -0.8429 O   0  0  0  0  0  0  0  0  0  0  0  0
    0.2173   -0.3320    2.4586 H   0  0  0  0  0  0  0  0  0  0  0  0
    0.6048   -2.5880    3.3736 H   0  0  0  0  0  0  0  0  0  0  0  0
    0.2017   -1.9430   -1.5369 H   0  0  0  0  0  0  0  0  0  0  0  0
   -0.5317   -5.9550    0.9840 H   0  0  0  0  0  0  0  0  0  0  0  0
    0.9569   -6.7599    1.5211 H   0  0  0  0  0  0  0  0  0  0  0  0
    2.2953   -5.3949   -0.1366 H   0  0  0  0  0  0  0  0  0  0  0  0
    1.0605   -6.3887   -0.9351 H   0  0  0  0  0  0  0  0  0  0  0  0
   -0.1835    1.9128    1.3821 H   0  0  0  0  0  0  0  0  0  0  0  0
   -1.5842    0.8220    1.3482 H   0  0  0  0  0  0  0  0  0  0  0  0
   -1.3812    2.0571    0.1346 H   0  0  0  0  0  0  0  0  0  0  0  0
  1  2  2  0  0  0  0
  1  4  1  0  0  0  0
  2  5  1  0  0  0  0
  3  4  2  0  0  0  0
  3  6  1  0  0  0  0
  4  7  1  0  0  0  0
  5  6  2  0  0  0  0
  5 12  1  0  0  0  0
  6 13  1  0  0  0  0
  7 10  1  0  0  0  0
  7 11  2  0  0  0  0
  8  9  1  0  0  0  0
  8 12  1  0  0  0  0
  9 13  1  0  0  0  0
  1 14  1  0  0  0  0
  2 15  1  0  0  0  0
  3 16  1  0  0  0  0
  8 17  1  0  0  0  0
  8 18  1  0  0  0  0
  9 19  1  0  0  0  0
  9 20  1  0  0  0  0
 10 21  1  0  0  0  0
 10 22  1  0  0  0  0
 10 23  1  0  0  0  0
M  END
$$$$
frag.vs.200
  -OEChem-01121112263D

 16 17  0     0  0  0  0  0  0999 V2000
    0.7042    1.9049    2.7438 C   0  0  0  0  0  0  0  0  0  0  0  0
    0.8726    1.2794    1.5062 C   0  0  0  0  0  0  0  0  0  0  0  0
   -1.3491    0.2943    1.6535 C   0  0  0  0  0  0  0  0  0  0  0  0
   -0.4910    1.7067    3.4041 C   0  0  0  0  0  0  0  0  0  0  0  0
   -1.4901    0.9230    2.8735 C   0  0  0  0  0  0  0  0  0  0  0  0
   -0.1481    0.4787    0.9641 C   0  0  0  0  0  0  0  0  0  0  0  0
   -2.1588    1.6916    4.7825 C   0  0  0  0  0  0  0  0  0  0  0  0
   -0.8328    2.2326    4.6117 O   0  0  0  0  0  0  0  0  0  0  0  0
   -2.5825    0.8600    3.6827 O   0  0  0  0  0  0  0  0  0  0  0  0
    0.0373   -0.1221   -0.2446 O   0  0  0  0  0  0  0  0  0  0  0  0
    1.4887    2.5232    3.1651 H   0  0  0  0  0  0  0  0  0  0  0  0
    1.8030    1.4157    0.9605 H   0  0  0  0  0  0  0  0  0  0  0  0
   -2.1424   -0.3213    1.2438 H   0  0  0  0  0  0  0  0  0  0  0  0
   -2.1787    1.0948    5.7016 H   0  0  0  0  0  0  0  0  0  0  0  0
   -2.8661    2.5224    4.8868 H   0  0  0  0  0  0  0  0  0  0  0  0
    0.9136    0.0983   -0.5973 H   0  0  0  0  0  0  0  0  0  0  0  0
  1  2  1  0  0  0  0
  1  4  2  0  0  0  0
  2  6  2  0  0  0  0
  3  5  2  0  0  0  0
  3  6  1  0  0  0  0
  4  5  1  0  0  0  0
  4  8  1  0  0  0  0
  5  9  1  0  0  0  0
  6 10  1  0  0  0  0
  7  8  1  0  0  0  0
  7  9  1  0  0  0  0
  1 11  1  0  0  0  0
  2 12  1  0  0  0  0
  3 13  1  0  0  0  0
  7 14  1  0  0  0  0
  7 15  1  0  0  0  0
 10 16  1  0  0  0  0
M  END
$$$$
frag.vs.201
  -OEChem-01121112263D

 18 19  0     0  0  0  0  0  0999 V2000
    3.0723   -1.2223    0.7509 C   0  0  0  0  0  0  0  0  0  0  0  0
    1.9338   -0.9390   -0.0015 C   0  0  0  0  0  0  0  0  0  0  0  0
    0.9988    0.1958    1.8989 C   0  0  0  0  0  0  0  0  0  0  0  0
    4.3566   -0.6622    4.0538 C   0  0  0  0  0  0  0  0  0  0  0  0
    3.3285    0.0410    4.6230 C   0  0  0  0  0  0  0  0  0  0  0  0
    3.1886   -0.8044    2.0745 C   0  0  0  0  0  0  0  0  0  0  0  0
    2.1323   -0.0820    2.6593 C   0  0  0  0  0  0  0  0  0  0  0  0
    0.8925   -0.2271    0.5751 C   0  0  0  0  0  0  0  0  0  0  0  0
    4.2972   -1.0899    2.7798 N   0  0  0  0  0  0  0  0  0  0  0  0
    2.2113    0.3367    3.9346 N   0  0  0  0  0  0  0  0  0  0  0  0
   -0.2660    0.0675   -0.1715 N   0  0  0  0  0  0  0  0  0  0  0  0
    3.8818   -1.7816    0.2860 H   0  0  0  0  0  0  0  0  0  0  0  0
    1.8740   -1.2783   -1.0319 H   0  0  0  0  0  0  0  0  0  0  0  0
    0.1799    0.7556    2.3489 H   0  0  0  0  0  0  0  0  0  0  0  0
    5.2597   -0.9053    4.5988 H   0  0  0  0  0  0  0  0  0  0  0  0
    3.3657    0.3900    5.6472 H   0  0  0  0  0  0  0  0  0  0  0  0
   -0.3087   -0.2011   -1.1343 H   0  0  0  0  0  0  0  0  0  0  0  0
   -0.9874    0.6222    0.2443 H   0  0  0  0  0  0  0  0  0  0  0  0
  1  2  1  0  0  0  0
  1  6  2  0  0  0  0
  2  8  2  0  0  0  0
  3  7  2  0  0  0  0
  3  8  1  0  0  0  0
  4  5  1  0  0  0  0
  4  9  2  0  0  0  0
  5 10  2  0  0  0  0
  6  7  1  0  0  0  0
  6  9  1  0  0  0  0
  7 10  1  0  0  0  0
  8 11  1  0  0  0  0
  1 12  1  0  0  0  0
  2 13  1  0  0  0  0
  3 14  1  0  0  0  0
  4 15  1  0  0  0  0
  5 16  1  0  0  0  0
 11 17  1  0  0  0  0
 11 18  1  0  0  0  0
M  END
$$$$
frag.vs.202
  -OEChem-01121112263D

 20 21  0     0  0  0  0  0  0999 V2000
    0.2979   -1.1769    1.7792 C   0  0  0  0  0  0  0  0  0  0  0  0
    0.5196   -2.4525    2.2989 C   0  0  0  0  0  0  0  0  0  0  0  0
    0.2866   -2.0843   -0.4619 C   0  0  0  0  0  0  0  0  0  0  0  0
    0.1764   -0.9939    0.4014 C   0  0  0  0  0  0  0  0  0  0  0  0
    0.6167   -3.5455    1.4372 C   0  0  0  0  0  0  0  0  0  0  0  0
    0.5219   -3.3582    0.0560 C   0  0  0  0  0  0  0  0  0  0  0  0
    0.5543   -5.8390    1.0877 C   0  0  0  0  0  0  0  0  0  0  0  0
    1.2151   -5.5522   -0.2464 C   0  0  0  0  0  0  0  0  0  0  0  0
   -0.0532    0.2969   -0.1197 N   0  0  0  0  0  0  0  0  0  0  0  0
    0.8145   -4.7756    2.0082 O   0  0  0  0  0  0  0  0  0  0  0  0
    0.6415   -4.3858   -0.8429 O   0  0  0  0  0  0  0  0  0  0  0  0
    0.2163   -0.3317    2.4581 H   0  0  0  0  0  0  0  0  0  0  0  0
    0.6036   -2.5876    3.3738 H   0  0  0  0  0  0  0  0  0  0  0  0
    0.2003   -1.9426   -1.5366 H   0  0  0  0  0  0  0  0  0  0  0  0
   -0.5318   -5.9548    0.9840 H   0  0  0  0  0  0  0  0  0  0  0  0
    0.9563   -6.7601    1.5214 H   0  0  0  0  0  0  0  0  0  0  0  0
    2.2954   -5.3949   -0.1369 H   0  0  0  0  0  0  0  0  0  0  0  0
    1.0597   -6.3884   -0.9353 H   0  0  0  0  0  0  0  0  0  0  0  0
   -0.1736    1.0630    0.5112 H   0  0  0  0  0  0  0  0  0  0  0  0
   -0.1854    0.4084   -1.1044 H   0  0  0  0  0  0  0  0  0  0  0  0
  1  2  1  0  0  0  0
  1  4  2  0  0  0  0
  2  5  2  0  0  0  0
  3  4  1  0  0  0  0
  3  6  2  0  0  0  0
  4  9  1  0  0  0  0
  5  6  1  0  0  0  0
  5 10  1  0  0  0  0
  6 11  1  0  0  0  0
  7  8  1  0  0  0  0
  7 10  1  0  0  0  0
  8 11  1  0  0  0  0
  1 12  1  0  0  0  0
  2 13  1  0  0  0  0
  3 14  1  0  0  0  0
  7 15  1  0  0  0  0
  7 16  1  0  0  0  0
  8 17  1  0  0  0  0
  8 18  1  0  0  0  0
  9 19  1  0  0  0  0
  9 20  1  0  0  0  0
M  END
$$$$
frag.vs.203
  -OEChem-01121112263D

 17 18  0     0  0  0  0  0  0999 V2000
    0.8726    1.2794    1.5062 C   0  0  0  0  0  0  0  0  0  0  0  0
    0.7042    1.9049    2.7438 C   0  0  0  0  0  0  0  0  0  0  0  0
   -1.3491    0.2943    1.6535 C   0  0  0  0  0  0  0  0  0  0  0  0
   -0.1481    0.4787    0.9641 C   0  0  0  0  0  0  0  0  0  0  0  0
   -0.4910    1.7067    3.4041 C   0  0  0  0  0  0  0  0  0  0  0  0
   -1.4901    0.9230    2.8735 C   0  0  0  0  0  0  0  0  0  0  0  0
   -2.1588    1.6916    4.7825 C   0  0  0  0  0  0  0  0  0  0  0  0
    0.0437   -0.1438   -0.2887 N   0  0  0  0  0  0  0  0  0  0  0  0
   -0.8328    2.2326    4.6117 O   0  0  0  0  0  0  0  0  0  0  0  0
   -2.5825    0.8600    3.6827 O   0  0  0  0  0  0  0  0  0  0  0  0
    1.8044    1.4192    0.9629 H   0  0  0  0  0  0  0  0  0  0  0  0
    1.4884    2.5241    3.1645 H   0  0  0  0  0  0  0  0  0  0  0  0
   -2.1456   -0.3204    1.2477 H   0  0  0  0  0  0  0  0  0  0  0  0
   -2.1793    1.0953    5.7019 H   0  0  0  0  0  0  0  0  0  0  0  0
   -2.8658    2.5227    4.8860 H   0  0  0  0  0  0  0  0  0  0  0  0
    0.8868    0.0325   -0.7952 H   0  0  0  0  0  0  0  0  0  0  0  0
   -0.7041   -0.6724   -0.6884 H   0  0  0  0  0  0  0  0  0  0  0  0
  1  2  1  0  0  0  0
  1  4  2  0  0  0  0
  2  5  2  0  0  0  0
  3  4  1  0  0  0  0
  3  6  2  0  0  0  0
  4  8  1  0  0  0  0
  5  6  1  0  0  0  0
  5  9  1  0  0  0  0
  6 10  1  0  0  0  0
  7  9  1  0  0  0  0
  7 10  1  0  0  0  0
  1 11  1  0  0  0  0
  2 12  1  0  0  0  0
  3 13  1  0  0  0  0
  7 14  1  0  0  0  0
  7 15  1  0  0  0  0
  8 16  1  0  0  0  0
  8 17  1  0  0  0  0
M  END
$$$$
frag.vs.204
  -OEChem-01121112263D

 29 31  0     0  0  0  0  0  0999 V2000
    6.5120    0.1208   -4.2387 C   0  0  0  0  0  0  0  0  0  0  0  0
    6.5958   -1.0322   -3.4581 C   0  0  0  0  0  0  0  0  0  0  0  0
    5.5734    1.1054   -3.9298 C   0  0  0  0  0  0  0  0  0  0  0  0
    5.7411   -1.2006   -2.3688 C   0  0  0  0  0  0  0  0  0  0  0  0
    4.7186    0.9369   -2.8405 C   0  0  0  0  0  0  0  0  0  0  0  0
    4.8025   -0.2161   -2.0599 C   0  0  0  0  0  0  0  0  0  0  0  0
    3.1363   -0.6691    1.0211 C   0  0  0  0  0  0  0  0  0  0  0  0
    2.0427   -0.5941    0.1919 C   0  0  0  0  0  0  0  0  0  0  0  0
    3.9175   -0.3903   -0.9305 C   0  0  0  0  0  0  0  0  0  0  0  0
    2.9938   -0.8562    2.4462 C   0  0  0  0  0  0  0  0  0  0  0  0
    0.6208   -0.6837    0.5885 C   0  0  0  0  0  0  0  0  0  0  0  0
    1.5623   -1.0635    2.9479 C   0  0  0  0  0  0  0  0  0  0  0  0
    0.5140   -0.3337    2.0854 C   0  0  0  0  0  0  0  0  0  0  0  0
    4.3036   -0.5380    0.3212 N   0  0  0  0  0  0  0  0  0  0  0  0
    2.5516   -0.4189   -1.0602 N   0  0  0  0  0  0  0  0  0  0  0  0
    3.9604   -0.9071    3.2000 O   0  0  0  0  0  0  0  0  0  0  0  0
    1.8240   -0.2941   -2.2321 O   0  0  0  0  0  0  0  0  0  0  0  0
    7.1779    0.2522   -5.0865 H   0  0  0  0  0  0  0  0  0  0  0  0
    7.3266   -1.7988   -3.6990 H   0  0  0  0  0  0  0  0  0  0  0  0
    5.5088    2.0037   -4.5370 H   0  0  0  0  0  0  0  0  0  0  0  0
    5.8207   -2.1038   -1.7685 H   0  0  0  0  0  0  0  0  0  0  0  0
    3.9917    1.7131   -2.6134 H   0  0  0  0  0  0  0  0  0  0  0  0
   -0.0022   -0.0001    0.0022 H   0  0  0  0  0  0  0  0  0  0  0  0
    0.2564   -1.7034    0.4191 H   0  0  0  0  0  0  0  0  0  0  0  0
    1.3619   -2.1411    2.9522 H   0  0  0  0  0  0  0  0  0  0  0  0
    1.5009   -0.6979    3.9784 H   0  0  0  0  0  0  0  0  0  0  0  0
    0.6559    0.7487    2.2072 H   0  0  0  0  0  0  0  0  0  0  0  0
   -0.4935   -0.5668    2.4476 H   0  0  0  0  0  0  0  0  0  0  0  0
    0.9138   -0.3669   -1.8910 H   0  0  0  0  0  0  0  0  0  0  0  0
  1  2  1  0  0  0  0
  1  3  2  0  0  0  0
  2  4  2  0  0  0  0
  3  5  1  0  0  0  0
  4  6  1  0  0  0  0
  5  6  2  0  0  0  0
  6  9  1  0  0  0  0
  7  8  2  0  0  0  0
  7 10  1  0  0  0  0
  7 14  1  0  0  0  0
  8 11  1  0  0  0  0
  8 15  1  0  0  0  0
  9 14  2  0  0  0  0
  9 15  1  0  0  0  0
 10 12  1  0  0  0  0
 10 16  2  0  0  0  0
 11 13  1  0  0  0  0
 12 13  1  0  0  0  0
 15 17  1  0  0  0  0
  1 18  1  0  0  0  0
  2 19  1  0  0  0  0
  3 20  1  0  0  0  0
  4 21  1  0  0  0  0
  5 22  1  0  0  0  0
 11 23  1  0  0  0  0
 11 24  1  0  0  0  0
 12 25  1  0  0  0  0
 12 26  1  0  0  0  0
 13 27  1  0  0  0  0
 13 28  1  0  0  0  0
 17 29  1  0  0  0  0
M  END
$$$$
frag.vs.205
  -OEChem-01121112263D

 15 16  0     0  0  0  0  0  0999 V2000
    1.8307   -0.8841   -0.7173 C   0  0  0  0  0  0  0  0  0  0  0  0
    2.5401   -2.0115   -1.1649 C   0  0  0  0  0  0  0  0  0  0  0  0
    0.4692   -0.9241   -0.3348 C   0  0  0  0  0  0  0  0  0  0  0  0
    1.8081   -3.2221   -1.2164 C   0  0  0  0  0  0  0  0  0  0  0  0
    0.3560   -3.2648   -0.8082 C   0  0  0  0  0  0  0  0  0  0  0  0
   -0.3069   -2.0952   -0.3649 C   0  0  0  0  0  0  0  0  0  0  0  0
    2.2784   -4.4166   -1.6099 N   0  0  0  0  0  0  0  0  0  0  0  0
   -0.1844   -4.4892   -0.9174 N   0  0  0  0  0  0  0  0  0  0  0  0
   -1.6556   -2.0705    0.0291 N   0  0  0  0  0  0  0  0  0  0  0  0
    1.0170   -5.4887   -1.4786 S   0  0  0  0  0  0  0  0  0  0  0  0
    2.3546    0.0692   -0.6623 H   0  0  0  0  0  0  0  0  0  0  0  0
    3.5833   -1.9486   -1.4522 H   0  0  0  0  0  0  0  0  0  0  0  0
    0.0106    0.0065    0.0001 H   0  0  0  0  0  0  0  0  0  0  0  0
   -2.0516   -1.2184    0.3784 H   0  0  0  0  0  0  0  0  0  0  0  0
   -2.1798   -2.9248    0.0457 H   0  0  0  0  0  0  0  0  0  0  0  0
  1  2  2  0  0  0  0
  1  3  1  0  0  0  0
  2  4  1  0  0  0  0
  3  6  2  0  0  0  0
  4  5  1  0  0  0  0
  4  7  2  0  0  0  0
  5  6  1  0  0  0  0
  5  8  2  0  0  0  0
  6  9  1  0  0  0  0
  7 10  1  0  0  0  0
  8 10  1  0  0  0  0
  1 11  1  0  0  0  0
  2 12  1  0  0  0  0
  3 13  1  0  0  0  0
  9 14  1  0  0  0  0
  9 15  1  0  0  0  0
M  END
$$$$
frag.vs.206
  -OEChem-01121112263D

 26 27  0     0  0  0  0  0  0999 V2000
   -2.2214    1.9015   -1.7491 C   0  0  0  0  0  0  0  0  0  0  0  0
   -1.0486    1.5450   -1.0736 C   0  0  0  0  0  0  0  0  0  0  0  0
   -1.9472   -0.6489   -0.6463 C   0  0  0  0  0  0  0  0  0  0  0  0
   -3.2759    0.9886   -1.8840 C   0  0  0  0  0  0  0  0  0  0  0  0
   -0.9119    0.2717   -0.5232 C   0  0  0  0  0  0  0  0  0  0  0  0
   -3.1109   -0.2786   -1.3229 C   0  0  0  0  0  0  0  0  0  0  0  0
   -5.4809    0.3457   -2.6502 C   0  0  0  0  0  0  0  0  0  0  0  0
   -4.5346    1.2923   -2.5783 C   0  0  0  0  0  0  0  0  0  0  0  0
   -5.3220   -0.9955   -2.0633 C   0  0  0  0  0  0  0  0  0  0  0  0
   -4.1600    4.0171   -5.0097 C   0  0  0  0  0  0  0  0  0  0  0  0
   -4.7428    2.6459   -3.1923 C   0  0  0  0  0  0  0  0  0  0  0  0
    0.2720   -0.0811    0.1559 N   0  0  0  0  0  0  0  0  0  0  0  0
   -6.2101   -1.8364   -2.1489 O   0  0  0  0  0  0  0  0  0  0  0  0
   -4.1244   -1.2535   -1.4146 O   0  0  0  0  0  0  0  0  0  0  0  0
   -3.9943    2.7469   -4.3889 O   0  0  0  0  0  0  0  0  0  0  0  0
   -2.2858    2.9045   -2.1628 H   0  0  0  0  0  0  0  0  0  0  0  0
   -0.2464    2.2736   -0.9839 H   0  0  0  0  0  0  0  0  0  0  0  0
   -1.8555   -1.6455   -0.2225 H   0  0  0  0  0  0  0  0  0  0  0  0
   -6.4231    0.5355   -3.1556 H   0  0  0  0  0  0  0  0  0  0  0  0
   -3.5680    4.0551   -5.9274 H   0  0  0  0  0  0  0  0  0  0  0  0
   -3.8381    4.8041   -4.3229 H   0  0  0  0  0  0  0  0  0  0  0  0
   -5.2156    4.1585   -5.2536 H   0  0  0  0  0  0  0  0  0  0  0  0
   -4.4224    3.4225   -2.5000 H   0  0  0  0  0  0  0  0  0  0  0  0
   -5.7979    2.7794   -3.4231 H   0  0  0  0  0  0  0  0  0  0  0  0
    1.0263    0.5747    0.1958 H   0  0  0  0  0  0  0  0  0  0  0  0
    0.3757   -1.0128    0.5049 H   0  0  0  0  0  0  0  0  0  0  0  0
  1  2  1  0  0  0  0
  1  4  2  0  0  0  0
  2  5  2  0  0  0  0
  3  5  1  0  0  0  0
  3  6  2  0  0  0  0
  4  6  1  0  0  0  0
  4  8  1  0  0  0  0
  5 12  1  0  0  0  0
  6 14  1  0  0  0  0
  7  8  2  0  0  0  0
  7  9  1  0  0  0  0
  8 11  1  0  0  0  0
  9 13  2  0  0  0  0
  9 14  1  0  0  0  0
 10 15  1  0  0  0  0
 11 15  1  0  0  0  0
  1 16  1  0  0  0  0
  2 17  1  0  0  0  0
  3 18  1  0  0  0  0
  7 19  1  0  0  0  0
 10 20  1  0  0  0  0
 10 21  1  0  0  0  0
 10 22  1  0  0  0  0
 11 23  1  0  0  0  0
 11 24  1  0  0  0  0
 12 25  1  0  0  0  0
 12 26  1  0  0  0  0
M  END
$$$$
frag.vs.207
  -OEChem-01121112263D

 27 28  0     0  0  0  0  0  0999 V2000
    0.1674   -1.9365    0.9400 C   0  0  0  0  0  0  0  0  0  0  0  0
    0.8323   -3.1650    0.9679 C   0  0  0  0  0  0  0  0  0  0  0  0
    0.5301   -0.9485    0.0103 C   0  0  0  0  0  0  0  0  0  0  0  0
    1.8586   -3.3747    0.0643 C   0  0  0  0  0  0  0  0  0  0  0  0
    1.5628   -1.1767   -0.9007 C   0  0  0  0  0  0  0  0  0  0  0  0
    2.2115   -2.3956   -0.8487 C   0  0  0  0  0  0  0  0  0  0  0  0
    2.6864   -4.5830   -0.1501 C   0  0  0  0  0  0  0  0  0  0  0  0
    3.7316   -4.0214   -1.1421 C   0  0  0  0  0  0  0  0  0  0  0  0
    5.0724   -3.7412   -0.4515 C   0  0  0  0  0  0  0  0  0  0  0  0
    3.9419   -4.9731   -2.3209 C   0  0  0  0  0  0  0  0  0  0  0  0
    1.9455   -0.1309   -1.8881 C   0  0  0  0  0  0  0  0  0  0  0  0
    3.2389   -2.7594   -1.6786 O   0  0  0  0  0  0  0  0  0  0  0  0
    3.1653    0.4810   -1.4838 O   0  0  0  0  0  0  0  0  0  0  0  0
   -0.6411   -1.7446    1.6400 H   0  0  0  0  0  0  0  0  0  0  0  0
    0.5434   -3.9323    1.6780 H   0  0  0  0  0  0  0  0  0  0  0  0
   -0.0052   -0.0022    0.0075 H   0  0  0  0  0  0  0  0  0  0  0  0
    3.1384   -4.9543    0.7747 H   0  0  0  0  0  0  0  0  0  0  0  0
    2.0749   -5.3744   -0.5974 H   0  0  0  0  0  0  0  0  0  0  0  0
    5.7791   -3.3492   -1.1776 H   0  0  0  0  0  0  0  0  0  0  0  0
    5.4618   -4.6632   -0.0288 H   0  0  0  0  0  0  0  0  0  0  0  0
    4.9263   -3.0128    0.3414 H   0  0  0  0  0  0  0  0  0  0  0  0
    4.6802   -4.5556   -3.0023 H   0  0  0  0  0  0  0  0  0  0  0  0
    3.0025   -5.1125   -2.8518 H   0  0  0  0  0  0  0  0  0  0  0  0
    4.2942   -5.9359   -1.9566 H   0  0  0  0  0  0  0  0  0  0  0  0
    2.0846   -0.5556   -2.8929 H   0  0  0  0  0  0  0  0  0  0  0  0
    1.1720    0.6469   -1.9668 H   0  0  0  0  0  0  0  0  0  0  0  0
    3.3748    1.1520   -2.1527 H   0  0  0  0  0  0  0  0  0  0  0  0
  1  2  2  0  0  0  0
  1  3  1  0  0  0  0
  2  4  1  0  0  0  0
  3  5  2  0  0  0  0
  4  6  2  0  0  0  0
  4  7  1  0  0  0  0
  5  6  1  0  0  0  0
  5 11  1  0  0  0  0
  6 12  1  0  0  0  0
  7  8  1  0  0  0  0
  8  9  1  0  0  0  0
  8 10  1  0  0  0  0
  8 12  1  0  0  0  0
 11 13  1  0  0  0  0
  1 14  1  0  0  0  0
  2 15  1  0  0  0  0
  3 16  1  0  0  0  0
  7 17  1  0  0  0  0
  7 18  1  0  0  0  0
  9 19  1  0  0  0  0
  9 20  1  0  0  0  0
  9 21  1  0  0  0  0
 10 22  1  0  0  0  0
 10 23  1  0  0  0  0
 10 24  1  0  0  0  0
 11 25  1  0  0  0  0
 11 26  1  0  0  0  0
 13 27  1  0  0  0  0
M  END
$$$$
frag.vs.208
  -OEChem-01121112263D

 19 20  0     0  0  0  0  0  0999 V2000
    0.8726    1.2794    1.5062 C   0  0  0  0  0  0  0  0  0  0  0  0
   -0.1481    0.4787    0.9641 C   0  0  0  0  0  0  0  0  0  0  0  0
    0.7042    1.9049    2.7438 C   0  0  0  0  0  0  0  0  0  0  0  0
   -1.3491    0.2943    1.6535 C   0  0  0  0  0  0  0  0  0  0  0  0
   -0.4910    1.7067    3.4041 C   0  0  0  0  0  0  0  0  0  0  0  0
   -1.4901    0.9230    2.8735 C   0  0  0  0  0  0  0  0  0  0  0  0
   -2.1588    1.6916    4.7825 C   0  0  0  0  0  0  0  0  0  0  0  0
   -2.4304   -0.5523    1.0817 C   0  0  0  0  0  0  0  0  0  0  0  0
   -0.8328    2.2326    4.6117 O   0  0  0  0  0  0  0  0  0  0  0  0
   -2.5825    0.8600    3.6827 O   0  0  0  0  0  0  0  0  0  0  0  0
   -2.4725   -1.7988    1.7679 O   0  0  0  0  0  0  0  0  0  0  0  0
    1.8001    1.4114    0.9559 H   0  0  0  0  0  0  0  0  0  0  0  0
    0.0089    0.0030   -0.0010 H   0  0  0  0  0  0  0  0  0  0  0  0
    1.4883    2.5234    3.1650 H   0  0  0  0  0  0  0  0  0  0  0  0
   -2.1783    1.0945    5.7012 H   0  0  0  0  0  0  0  0  0  0  0  0
   -2.8659    2.5225    4.8865 H   0  0  0  0  0  0  0  0  0  0  0  0
   -3.4145   -0.0697    1.1754 H   0  0  0  0  0  0  0  0  0  0  0  0
   -2.2636   -0.7467    0.0120 H   0  0  0  0  0  0  0  0  0  0  0  0
   -3.1880   -2.3145    1.3636 H   0  0  0  0  0  0  0  0  0  0  0  0
  1  2  1  0  0  0  0
  1  3  2  0  0  0  0
  2  4  2  0  0  0  0
  3  5  1  0  0  0  0
  4  6  1  0  0  0  0
  4  8  1  0  0  0  0
  5  6  2  0  0  0  0
  5  9  1  0  0  0  0
  6 10  1  0  0  0  0
  7  9  1  0  0  0  0
  7 10  1  0  0  0  0
  8 11  1  0  0  0  0
  1 12  1  0  0  0  0
  2 13  1  0  0  0  0
  3 14  1  0  0  0  0
  7 15  1  0  0  0  0
  7 16  1  0  0  0  0
  8 17  1  0  0  0  0
  8 18  1  0  0  0  0
 11 19  1  0  0  0  0
M  END
$$$$
frag.vs.209
  -OEChem-01121112263D

 29 30  0     0  0  0  0  0  0999 V2000
    3.0896   -1.0001    2.0444 C   0  0  0  0  0  0  0  0  0  0  0  0
    3.3102   -2.0092    2.9817 C   0  0  0  0  0  0  0  0  0  0  0  0
    1.9325   -1.0126    1.2654 C   0  0  0  0  0  0  0  0  0  0  0  0
    1.2169   -3.0435    2.3610 C   0  0  0  0  0  0  0  0  0  0  0  0
    2.3739   -3.0309    3.1400 C   0  0  0  0  0  0  0  0  0  0  0  0
    0.9962   -2.0343    1.4237 C   0  0  0  0  0  0  0  0  0  0  0  0
   -0.4003   -3.2046   -0.2303 C   0  0  0  0  0  0  0  0  0  0  0  0
   -0.7446   -0.7831    0.1751 C   0  0  0  0  0  0  0  0  0  0  0  0
   -1.8805   -3.2885   -0.5850 C   0  0  0  0  0  0  0  0  0  0  0  0
   -2.2065   -0.9962   -0.2019 C   0  0  0  0  0  0  0  0  0  0  0  0
    2.6105   -4.1100    4.1417 C   0  0  0  0  0  0  0  0  0  0  0  0
   -0.1641   -2.0466    0.6428 N   0  0  0  0  0  0  0  0  0  0  0  0
   -2.3291   -2.0564   -1.1493 O   0  0  0  0  0  0  0  0  0  0  0  0
    1.7731   -3.8976    5.2717 O   0  0  0  0  0  0  0  0  0  0  0  0
    3.8187   -0.2044    1.9213 H   0  0  0  0  0  0  0  0  0  0  0  0
    4.2147   -1.9915    3.5845 H   0  0  0  0  0  0  0  0  0  0  0  0
    1.7704   -0.2211    0.5382 H   0  0  0  0  0  0  0  0  0  0  0  0
    0.4877   -3.8408    2.4859 H   0  0  0  0  0  0  0  0  0  0  0  0
   -0.0896   -4.1330    0.2632 H   0  0  0  0  0  0  0  0  0  0  0  0
    0.1906   -3.0875   -1.1478 H   0  0  0  0  0  0  0  0  0  0  0  0
   -0.1870   -0.4350   -0.7038 H   0  0  0  0  0  0  0  0  0  0  0  0
   -0.6769   -0.0128    0.9523 H   0  0  0  0  0  0  0  0  0  0  0  0
   -2.0417   -4.0772   -1.3268 H   0  0  0  0  0  0  0  0  0  0  0  0
   -2.4902   -3.5311    0.2938 H   0  0  0  0  0  0  0  0  0  0  0  0
   -2.8163   -1.2248    0.6806 H   0  0  0  0  0  0  0  0  0  0  0  0
   -2.6115   -0.0872   -0.6578 H   0  0  0  0  0  0  0  0  0  0  0  0
    2.3897   -5.1014    3.7229 H   0  0  0  0  0  0  0  0  0  0  0  0
    3.6573   -4.1196    4.4751 H   0  0  0  0  0  0  0  0  0  0  0  0
    1.9580   -4.6180    5.8953 H   0  0  0  0  0  0  0  0  0  0  0  0
  1  2  1  0  0  0  0
  1  3  2  0  0  0  0
  2  5  2  0  0  0  0
  3  6  1  0  0  0  0
  4  5  1  0  0  0  0
  4  6  2  0  0  0  0
  5 11  1  0  0  0  0
  6 12  1  0  0  0  0
  7  9  1  0  0  0  0
  7 12  1  0  0  0  0
  8 10  1  0  0  0  0
  8 12  1  0  0  0  0
  9 13  1  0  0  0  0
 10 13  1  0  0  0  0
 11 14  1  0  0  0  0
  1 15  1  0  0  0  0
  2 16  1  0  0  0  0
  3 17  1  0  0  0  0
  4 18  1  0  0  0  0
  7 19  1  0  0  0  0
  7 20  1  0  0  0  0
  8 21  1  0  0  0  0
  8 22  1  0  0  0  0
  9 23  1  0  0  0  0
  9 24  1  0  0  0  0
 10 25  1  0  0  0  0
 10 26  1  0  0  0  0
 11 27  1  0  0  0  0
 11 28  1  0  0  0  0
 14 29  1  0  0  0  0
M  END
$$$$
frag.vs.210
  -OEChem-01121112263D

 27 28  0     0  0  0  0  0  0999 V2000
    2.1520   -2.6202    3.4627 C   0  0  0  0  0  0  0  0  0  0  0  0
    0.9948   -2.6319    2.6840 C   0  0  0  0  0  0  0  0  0  0  0  0
    3.3106   -2.0108    2.9811 C   0  0  0  0  0  0  0  0  0  0  0  0
    2.1548   -1.4249    0.9420 C   0  0  0  0  0  0  0  0  0  0  0  0
    0.9962   -2.0343    1.4237 C   0  0  0  0  0  0  0  0  0  0  0  0
    3.3120   -1.4131    1.7208 C   0  0  0  0  0  0  0  0  0  0  0  0
   -0.7487   -0.7573    0.2490 C   0  0  0  0  0  0  0  0  0  0  0  0
   -1.1193   -3.1528    0.7691 C   0  0  0  0  0  0  0  0  0  0  0  0
   -1.6486   -0.9498   -0.9663 C   0  0  0  0  0  0  0  0  0  0  0  0
   -2.0000   -3.2173   -0.4738 C   0  0  0  0  0  0  0  0  0  0  0  0
   -0.1641   -2.0466    0.6428 N   0  0  0  0  0  0  0  0  0  0  0  0
    4.4831   -0.7955    1.2347 N   0  0  0  0  0  0  0  0  0  0  0  0
   -2.6269   -1.9569   -0.7084 O   0  0  0  0  0  0  0  0  0  0  0  0
    2.1512   -3.0855    4.4442 H   0  0  0  0  0  0  0  0  0  0  0  0
    0.0978   -3.1100    3.0696 H   0  0  0  0  0  0  0  0  0  0  0  0
    4.2067   -2.0065    3.5965 H   0  0  0  0  0  0  0  0  0  0  0  0
    2.1565   -0.9590   -0.0410 H   0  0  0  0  0  0  0  0  0  0  0  0
    0.0372   -0.0311    0.0104 H   0  0  0  0  0  0  0  0  0  0  0  0
   -1.3406   -0.3624    1.0847 H   0  0  0  0  0  0  0  0  0  0  0  0
   -1.7468   -2.9866    1.6541 H   0  0  0  0  0  0  0  0  0  0  0  0
   -0.5946   -4.1073    0.8942 H   0  0  0  0  0  0  0  0  0  0  0  0
   -2.1762   -0.0173   -1.1906 H   0  0  0  0  0  0  0  0  0  0  0  0
   -1.0681   -1.2238   -1.8556 H   0  0  0  0  0  0  0  0  0  0  0  0
   -1.4198   -3.5051   -1.3589 H   0  0  0  0  0  0  0  0  0  0  0  0
   -2.7870   -3.9655   -0.3361 H   0  0  0  0  0  0  0  0  0  0  0  0
    5.2912   -0.7514    1.8220 H   0  0  0  0  0  0  0  0  0  0  0  0
    4.4576   -0.3298    0.3501 H   0  0  0  0  0  0  0  0  0  0  0  0
  1  2  2  0  0  0  0
  1  3  1  0  0  0  0
  2  5  1  0  0  0  0
  3  6  2  0  0  0  0
  4  5  2  0  0  0  0
  4  6  1  0  0  0  0
  5 11  1  0  0  0  0
  6 12  1  0  0  0  0
  7  9  1  0  0  0  0
  7 11  1  0  0  0  0
  8 10  1  0  0  0  0
  8 11  1  0  0  0  0
  9 13  1  0  0  0  0
 10 13  1  0  0  0  0
  1 14  1  0  0  0  0
  2 15  1  0  0  0  0
  3 16  1  0  0  0  0
  4 17  1  0  0  0  0
  7 18  1  0  0  0  0
  7 19  1  0  0  0  0
  8 20  1  0  0  0  0
  8 21  1  0  0  0  0
  9 22  1  0  0  0  0
  9 23  1  0  0  0  0
 10 24  1  0  0  0  0
 10 25  1  0  0  0  0
 12 26  1  0  0  0  0
 12 27  1  0  0  0  0
M  END
$$$$
frag.vs.211
  -OEChem-01121112263D

 35 36  0     0  0  0  0  0  0999 V2000
   -4.3670    1.4709    2.6280 C   0  0  0  0  0  0  0  0  0  0  0  0
   -2.4914    0.6754    3.9267 C   0  0  0  0  0  0  0  0  0  0  0  0
   -5.0975    0.3390    2.9897 C   0  0  0  0  0  0  0  0  0  0  0  0
   -3.2220   -0.4565    4.2884 C   0  0  0  0  0  0  0  0  0  0  0  0
   -3.0639    1.6391    3.0965 C   0  0  0  0  0  0  0  0  0  0  0  0
   -4.5250   -0.6247    3.8198 C   0  0  0  0  0  0  0  0  0  0  0  0
    0.9810    2.8169   -0.0854 C   0  0  0  0  0  0  0  0  0  0  0  0
    1.2216    3.2602    1.3531 C   0  0  0  0  0  0  0  0  0  0  0  0
   -0.0732    1.7167   -0.1345 C   0  0  0  0  0  0  0  0  0  0  0  0
   -0.0905    3.6249    2.0495 C   0  0  0  0  0  0  0  0  0  0  0  0
   -1.3442    2.1301    0.6090 C   0  0  0  0  0  0  0  0  0  0  0  0
   -2.2769    2.8571    2.7077 C   0  0  0  0  0  0  0  0  0  0  0  0
   -5.3074   -1.8338    4.2075 C   0  0  0  0  0  0  0  0  0  0  0  0
   -1.0464    2.5099    1.9972 N   0  0  0  0  0  0  0  0  0  0  0  0
   -4.8837   -3.0121    3.4946 N   0  0  0  0  0  0  0  0  0  0  0  0
   -4.8208    2.2163    1.9803 H   0  0  0  0  0  0  0  0  0  0  0  0
   -1.4771    0.7991    4.2971 H   0  0  0  0  0  0  0  0  0  0  0  0
   -6.1126    0.2171    2.6213 H   0  0  0  0  0  0  0  0  0  0  0  0
   -2.7683   -1.2026    4.9354 H   0  0  0  0  0  0  0  0  0  0  0  0
    0.6447    3.6737   -0.6817 H   0  0  0  0  0  0  0  0  0  0  0  0
    1.9166    2.4611   -0.5306 H   0  0  0  0  0  0  0  0  0  0  0  0
    1.7183    2.4529    1.9064 H   0  0  0  0  0  0  0  0  0  0  0  0
    1.9000    4.1207    1.3664 H   0  0  0  0  0  0  0  0  0  0  0  0
   -0.3139    1.4815   -1.1774 H   0  0  0  0  0  0  0  0  0  0  0  0
    0.3327    0.8011    0.3143 H   0  0  0  0  0  0  0  0  0  0  0  0
    0.1351    3.8716    3.0941 H   0  0  0  0  0  0  0  0  0  0  0  0
   -0.5148    4.5256    1.5862 H   0  0  0  0  0  0  0  0  0  0  0  0
   -1.8313    2.9560    0.0740 H   0  0  0  0  0  0  0  0  0  0  0  0
   -2.0377    1.2805    0.5972 H   0  0  0  0  0  0  0  0  0  0  0  0
   -2.8700    3.5084    2.0565 H   0  0  0  0  0  0  0  0  0  0  0  0
   -1.9999    3.4441    3.5897 H   0  0  0  0  0  0  0  0  0  0  0  0
   -5.2060   -2.0436    5.2815 H   0  0  0  0  0  0  0  0  0  0  0  0
   -6.3800   -1.6999    4.0105 H   0  0  0  0  0  0  0  0  0  0  0  0
   -5.5392   -3.7636    3.3599 H   0  0  0  0  0  0  0  0  0  0  0  0
   -3.9020   -3.1534    3.3245 H   0  0  0  0  0  0  0  0  0  0  0  0
  1  3  1  0  0  0  0
  1  5  2  0  0  0  0
  2  4  2  0  0  0  0
  2  5  1  0  0  0  0
  3  6  2  0  0  0  0
  4  6  1  0  0  0  0
  5 12  1  0  0  0  0
  6 13  1  0  0  0  0
  7  8  1  0  0  0  0
  7  9  1  0  0  0  0
  8 10  1  0  0  0  0
  9 11  1  0  0  0  0
 10 14  1  0  0  0  0
 11 14  1  0  0  0  0
 12 14  1  0  0  0  0
 13 15  1  0  0  0  0
  1 16  1  0  0  0  0
  2 17  1  0  0  0  0
  3 18  1  0  0  0  0
  4 19  1  0  0  0  0
  7 20  1  0  0  0  0
  7 21  1  0  0  0  0
  8 22  1  0  0  0  0
  8 23  1  0  0  0  0
  9 24  1  0  0  0  0
  9 25  1  0  0  0  0
 10 26  1  0  0  0  0
 10 27  1  0  0  0  0
 11 28  1  0  0  0  0
 11 29  1  0  0  0  0
 12 30  1  0  0  0  0
 12 31  1  0  0  0  0
 13 32  1  0  0  0  0
 13 33  1  0  0  0  0
 15 34  1  0  0  0  0
 15 35  1  0  0  0  0
M  END
$$$$
frag.vs.212
  -OEChem-01121112263D

 38 39  0     0  0  0  0  0  0999 V2000
   -3.2597    1.0526    4.1480 C   0  0  0  0  0  0  0  0  0  0  0  0
   -1.6266    2.5503    5.1108 C   0  0  0  0  0  0  0  0  0  0  0  0
   -3.3648    0.3833    5.3672 C   0  0  0  0  0  0  0  0  0  0  0  0
   -1.7317    1.8810    6.3301 C   0  0  0  0  0  0  0  0  0  0  0  0
   -2.3906    2.1361    4.0197 C   0  0  0  0  0  0  0  0  0  0  0  0
   -2.6008    0.7975    6.4583 C   0  0  0  0  0  0  0  0  0  0  0  0
    1.1024    2.5397    0.0816 C   0  0  0  0  0  0  0  0  0  0  0  0
    0.7199    3.8956    0.6638 C   0  0  0  0  0  0  0  0  0  0  0  0
    0.8155    1.4288    1.0853 C   0  0  0  0  0  0  0  0  0  0  0  0
   -0.7159    3.8895    1.1909 C   0  0  0  0  0  0  0  0  0  0  0  0
   -0.6232    1.5008    1.5992 C   0  0  0  0  0  0  0  0  0  0  0  0
   -1.7107   -1.4590    9.3038 C   0  0  0  0  0  0  0  0  0  0  0  0
   -2.2769    2.8571    2.7077 C   0  0  0  0  0  0  0  0  0  0  0  0
   -2.7150    0.0824    7.7621 C   0  0  0  0  0  0  0  0  0  0  0  0
   -0.9136    2.8197    2.1790 N   0  0  0  0  0  0  0  0  0  0  0  0
   -1.5855   -0.7751    8.0173 N   0  0  0  0  0  0  0  0  0  0  0  0
   -3.8584    0.7226    3.3030 H   0  0  0  0  0  0  0  0  0  0  0  0
   -0.9477    3.3942    5.0199 H   0  0  0  0  0  0  0  0  0  0  0  0
   -4.0456   -0.4587    5.4584 H   0  0  0  0  0  0  0  0  0  0  0  0
   -1.1326    2.2101    7.1751 H   0  0  0  0  0  0  0  0  0  0  0  0
    0.5302    2.3606   -0.8369 H   0  0  0  0  0  0  0  0  0  0  0  0
    2.1630    2.5339   -0.1926 H   0  0  0  0  0  0  0  0  0  0  0  0
    1.4088    4.1508    1.4793 H   0  0  0  0  0  0  0  0  0  0  0  0
    0.8304    4.6715   -0.1020 H   0  0  0  0  0  0  0  0  0  0  0  0
    0.9939    0.4535    0.6186 H   0  0  0  0  0  0  0  0  0  0  0  0
    1.5111    1.5109    1.9303 H   0  0  0  0  0  0  0  0  0  0  0  0
   -0.9130    4.8638    1.6544 H   0  0  0  0  0  0  0  0  0  0  0  0
   -1.4154    3.7804    0.3515 H   0  0  0  0  0  0  0  0  0  0  0  0
   -1.3182    1.2724    0.7803 H   0  0  0  0  0  0  0  0  0  0  0  0
   -0.7521    0.7234    2.3621 H   0  0  0  0  0  0  0  0  0  0  0  0
   -1.7958   -0.7274   10.1115 H   0  0  0  0  0  0  0  0  0  0  0  0
   -0.8326   -2.0843    9.4864 H   0  0  0  0  0  0  0  0  0  0  0  0
   -2.6006   -2.0942    9.3091 H   0  0  0  0  0  0  0  0  0  0  0  0
   -2.9406    2.4073    1.9612 H   0  0  0  0  0  0  0  0  0  0  0  0
   -2.5675    3.9079    2.8103 H   0  0  0  0  0  0  0  0  0  0  0  0
   -2.7860    0.7921    8.5982 H   0  0  0  0  0  0  0  0  0  0  0  0
   -3.6168   -0.5440    7.8005 H   0  0  0  0  0  0  0  0  0  0  0  0
   -1.5075   -1.4823    7.2797 H   0  0  0  0  0  0  0  0  0  0  0  0
  1  3  2  0  0  0  0
  1  5  1  0  0  0  0
  2  4  1  0  0  0  0
  2  5  2  0  0  0  0
  3  6  1  0  0  0  0
  4  6  2  0  0  0  0
  5 13  1  0  0  0  0
  6 14  1  0  0  0  0
  7  8  1  0  0  0  0
  7  9  1  0  0  0  0
  8 10  1  0  0  0  0
  9 11  1  0  0  0  0
 10 15  1  0  0  0  0
 11 15  1  0  0  0  0
 12 16  1  0  0  0  0
 13 15  1  0  0  0  0
 14 16  1  0  0  0  0
  1 17  1  0  0  0  0
  2 18  1  0  0  0  0
  3 19  1  0  0  0  0
  4 20  1  0  0  0  0
  7 21  1  0  0  0  0
  7 22  1  0  0  0  0
  8 23  1  0  0  0  0
  8 24  1  0  0  0  0
  9 25  1  0  0  0  0
  9 26  1  0  0  0  0
 10 27  1  0  0  0  0
 10 28  1  0  0  0  0
 11 29  1  0  0  0  0
 11 30  1  0  0  0  0
 12 31  1  0  0  0  0
 12 32  1  0  0  0  0
 12 33  1  0  0  0  0
 13 34  1  0  0  0  0
 13 35  1  0  0  0  0
 14 36  1  0  0  0  0
 14 37  1  0  0  0  0
 16 38  1  0  0  0  0
M  END
$$$$
frag.vs.213
  -OEChem-01121112263D

 34 35  0     0  0  0  0  0  0999 V2000
   -4.3670    1.4709    2.6280 C   0  0  0  0  0  0  0  0  0  0  0  0
   -2.4914    0.6754    3.9267 C   0  0  0  0  0  0  0  0  0  0  0  0
   -5.0975    0.3390    2.9897 C   0  0  0  0  0  0  0  0  0  0  0  0
   -3.2220   -0.4565    4.2884 C   0  0  0  0  0  0  0  0  0  0  0  0
   -3.0639    1.6391    3.0965 C   0  0  0  0  0  0  0  0  0  0  0  0
   -4.5250   -0.6247    3.8198 C   0  0  0  0  0  0  0  0  0  0  0  0
    0.9810    2.8169   -0.0854 C   0  0  0  0  0  0  0  0  0  0  0  0
    1.2216    3.2602    1.3531 C   0  0  0  0  0  0  0  0  0  0  0  0
   -0.0732    1.7167   -0.1345 C   0  0  0  0  0  0  0  0  0  0  0  0
   -0.0905    3.6249    2.0495 C   0  0  0  0  0  0  0  0  0  0  0  0
   -1.3442    2.1301    0.6090 C   0  0  0  0  0  0  0  0  0  0  0  0
   -2.2769    2.8571    2.7077 C   0  0  0  0  0  0  0  0  0  0  0  0
   -5.3074   -1.8338    4.2075 C   0  0  0  0  0  0  0  0  0  0  0  0
   -1.0464    2.5099    1.9972 N   0  0  0  0  0  0  0  0  0  0  0  0
   -4.8342   -2.9574    3.4750 O   0  0  0  0  0  0  0  0  0  0  0  0
   -4.8208    2.2163    1.9803 H   0  0  0  0  0  0  0  0  0  0  0  0
   -1.4771    0.7991    4.2971 H   0  0  0  0  0  0  0  0  0  0  0  0
   -6.1126    0.2171    2.6213 H   0  0  0  0  0  0  0  0  0  0  0  0
   -2.7683   -1.2026    4.9354 H   0  0  0  0  0  0  0  0  0  0  0  0
    0.6447    3.6737   -0.6817 H   0  0  0  0  0  0  0  0  0  0  0  0
    1.9166    2.4611   -0.5306 H   0  0  0  0  0  0  0  0  0  0  0  0
    1.7183    2.4529    1.9064 H   0  0  0  0  0  0  0  0  0  0  0  0
    1.9000    4.1207    1.3664 H   0  0  0  0  0  0  0  0  0  0  0  0
   -0.3139    1.4815   -1.1774 H   0  0  0  0  0  0  0  0  0  0  0  0
    0.3327    0.8011    0.3143 H   0  0  0  0  0  0  0  0  0  0  0  0
    0.1351    3.8716    3.0941 H   0  0  0  0  0  0  0  0  0  0  0  0
   -0.5148    4.5256    1.5862 H   0  0  0  0  0  0  0  0  0  0  0  0
   -1.8313    2.9560    0.0740 H   0  0  0  0  0  0  0  0  0  0  0  0
   -2.0377    1.2805    0.5972 H   0  0  0  0  0  0  0  0  0  0  0  0
   -2.8700    3.5084    2.0565 H   0  0  0  0  0  0  0  0  0  0  0  0
   -1.9999    3.4441    3.5897 H   0  0  0  0  0  0  0  0  0  0  0  0
   -5.2092   -2.0477    5.2806 H   0  0  0  0  0  0  0  0  0  0  0  0
   -6.3769   -1.6991    3.9954 H   0  0  0  0  0  0  0  0  0  0  0  0
   -5.3673   -3.7183    3.7560 H   0  0  0  0  0  0  0  0  0  0  0  0
  1  3  1  0  0  0  0
  1  5  2  0  0  0  0
  2  4  2  0  0  0  0
  2  5  1  0  0  0  0
  3  6  2  0  0  0  0
  4  6  1  0  0  0  0
  5 12  1  0  0  0  0
  6 13  1  0  0  0  0
  7  8  1  0  0  0  0
  7  9  1  0  0  0  0
  8 10  1  0  0  0  0
  9 11  1  0  0  0  0
 10 14  1  0  0  0  0
 11 14  1  0  0  0  0
 12 14  1  0  0  0  0
 13 15  1  0  0  0  0
  1 16  1  0  0  0  0
  2 17  1  0  0  0  0
  3 18  1  0  0  0  0
  4 19  1  0  0  0  0
  7 20  1  0  0  0  0
  7 21  1  0  0  0  0
  8 22  1  0  0  0  0
  8 23  1  0  0  0  0
  9 24  1  0  0  0  0
  9 25  1  0  0  0  0
 10 26  1  0  0  0  0
 10 27  1  0  0  0  0
 11 28  1  0  0  0  0
 11 29  1  0  0  0  0
 12 30  1  0  0  0  0
 12 31  1  0  0  0  0
 13 32  1  0  0  0  0
 13 33  1  0  0  0  0
 15 34  1  0  0  0  0
M  END
$$$$
frag.vs.214
  -OEChem-01121112263D

 32 33  0     0  0  0  0  0  0999 V2000
   -4.3670    1.4708    2.6281 C   0  0  0  0  0  0  0  0  0  0  0  0
   -2.4912    0.6752    3.9264 C   0  0  0  0  0  0  0  0  0  0  0  0
   -5.0973    0.3387    2.9894 C   0  0  0  0  0  0  0  0  0  0  0  0
   -3.2215   -0.4569    4.2878 C   0  0  0  0  0  0  0  0  0  0  0  0
   -3.0639    1.6391    3.0965 C   0  0  0  0  0  0  0  0  0  0  0  0
   -4.5246   -0.6251    3.8193 C   0  0  0  0  0  0  0  0  0  0  0  0
    0.9810    2.8169   -0.0854 C   0  0  0  0  0  0  0  0  0  0  0  0
    1.2216    3.2602    1.3531 C   0  0  0  0  0  0  0  0  0  0  0  0
   -0.0732    1.7167   -0.1345 C   0  0  0  0  0  0  0  0  0  0  0  0
   -0.0905    3.6249    2.0495 C   0  0  0  0  0  0  0  0  0  0  0  0
   -1.3442    2.1301    0.6090 C   0  0  0  0  0  0  0  0  0  0  0  0
   -2.2769    2.8571    2.7077 C   0  0  0  0  0  0  0  0  0  0  0  0
   -1.0464    2.5099    1.9972 N   0  0  0  0  0  0  0  0  0  0  0  0
   -5.2633   -1.7689    4.1865 N   0  0  0  0  0  0  0  0  0  0  0  0
   -4.8206    2.2161    1.9803 H   0  0  0  0  0  0  0  0  0  0  0  0
   -1.4762    0.7970    4.2947 H   0  0  0  0  0  0  0  0  0  0  0  0
   -6.1114    0.2167    2.6177 H   0  0  0  0  0  0  0  0  0  0  0  0
   -2.7651   -1.2019    4.9344 H   0  0  0  0  0  0  0  0  0  0  0  0
    0.6447    3.6737   -0.6817 H   0  0  0  0  0  0  0  0  0  0  0  0
    1.9166    2.4611   -0.5306 H   0  0  0  0  0  0  0  0  0  0  0  0
    1.7183    2.4529    1.9064 H   0  0  0  0  0  0  0  0  0  0  0  0
    1.9000    4.1207    1.3664 H   0  0  0  0  0  0  0  0  0  0  0  0
   -0.3139    1.4815   -1.1774 H   0  0  0  0  0  0  0  0  0  0  0  0
    0.3327    0.8011    0.3143 H   0  0  0  0  0  0  0  0  0  0  0  0
    0.1351    3.8716    3.0941 H   0  0  0  0  0  0  0  0  0  0  0  0
   -0.5148    4.5256    1.5862 H   0  0  0  0  0  0  0  0  0  0  0  0
   -1.8313    2.9560    0.0740 H   0  0  0  0  0  0  0  0  0  0  0  0
   -2.0377    1.2805    0.5972 H   0  0  0  0  0  0  0  0  0  0  0  0
   -2.8700    3.5084    2.0565 H   0  0  0  0  0  0  0  0  0  0  0  0
   -1.9999    3.4441    3.5897 H   0  0  0  0  0  0  0  0  0  0  0  0
   -6.2126   -1.8546    3.8840 H   0  0  0  0  0  0  0  0  0  0  0  0
   -4.8583   -2.4287    4.8195 H   0  0  0  0  0  0  0  0  0  0  0  0
  1  3  1  0  0  0  0
  1  5  2  0  0  0  0
  2  4  2  0  0  0  0
  2  5  1  0  0  0  0
  3  6  2  0  0  0  0
  4  6  1  0  0  0  0
  5 12  1  0  0  0  0
  6 14  1  0  0  0  0
  7  8  1  0  0  0  0
  7  9  1  0  0  0  0
  8 10  1  0  0  0  0
  9 11  1  0  0  0  0
 10 13  1  0  0  0  0
 11 13  1  0  0  0  0
 12 13  1  0  0  0  0
  1 15  1  0  0  0  0
  2 16  1  0  0  0  0
  3 17  1  0  0  0  0
  4 18  1  0  0  0  0
  7 19  1  0  0  0  0
  7 20  1  0  0  0  0
  8 21  1  0  0  0  0
  8 22  1  0  0  0  0
  9 23  1  0  0  0  0
  9 24  1  0  0  0  0
 10 25  1  0  0  0  0
 10 26  1  0  0  0  0
 11 27  1  0  0  0  0
 11 28  1  0  0  0  0
 12 29  1  0  0  0  0
 12 30  1  0  0  0  0
 14 31  1  0  0  0  0
 14 32  1  0  0  0  0
M  END
$$$$
frag.vs.215
  -OEChem-01121112263D

 38 39  0     0  0  0  0  0  0999 V2000
    4.5830   -5.6789   -2.3681 C   0  0  0  0  0  0  0  0  0  0  0  0
    2.5019   -6.7148   -1.7103 C   0  0  0  0  0  0  0  0  0  0  0  0
    3.9041   -4.4934   -2.6494 C   0  0  0  0  0  0  0  0  0  0  0  0
    1.8229   -5.5293   -1.9916 C   0  0  0  0  0  0  0  0  0  0  0  0
    3.8819   -6.7896   -1.8986 C   0  0  0  0  0  0  0  0  0  0  0  0
    2.5240   -4.4186   -2.4612 C   0  0  0  0  0  0  0  0  0  0  0  0
    4.5890   -8.0261   -1.6045 C   0  0  0  0  0  0  0  0  0  0  0  0
    1.9353    0.2733   -1.1624 C   0  0  0  0  0  0  0  0  0  0  0  0
    1.4286   -1.3561    0.5417 C   0  0  0  0  0  0  0  0  0  0  0  0
    1.7095   -0.7884   -2.2443 C   0  0  0  0  0  0  0  0  0  0  0  0
    1.2016   -2.4171   -0.5406 C   0  0  0  0  0  0  0  0  0  0  0  0
    1.3470    0.9974    1.0613 C   0  0  0  0  0  0  0  0  0  0  0  0
    4.3166  -10.2662   -0.8301 C   0  0  0  0  0  0  0  0  0  0  0  0
    1.7938   -3.1419   -2.7630 C   0  0  0  0  0  0  0  0  0  0  0  0
    1.1274   -0.0138    0.0291 N   0  0  0  0  0  0  0  0  0  0  0  0
    2.0113   -2.1302   -1.7310 N   0  0  0  0  0  0  0  0  0  0  0  0
    5.8094   -8.1842   -1.7404 O   0  0  0  0  0  0  0  0  0  0  0  0
    3.7372   -8.9982   -1.1556 O   0  0  0  0  0  0  0  0  0  0  0  0
    5.6585   -5.7268   -2.5180 H   0  0  0  0  0  0  0  0  0  0  0  0
    1.9452   -7.5739   -1.3451 H   0  0  0  0  0  0  0  0  0  0  0  0
    4.4583   -3.6328   -3.0145 H   0  0  0  0  0  0  0  0  0  0  0  0
    0.7475   -5.4797   -1.8416 H   0  0  0  0  0  0  0  0  0  0  0  0
    3.0034    0.3206   -0.9093 H   0  0  0  0  0  0  0  0  0  0  0  0
    1.6541    1.2502   -1.5743 H   0  0  0  0  0  0  0  0  0  0  0  0
    0.7725   -1.5840    1.3905 H   0  0  0  0  0  0  0  0  0  0  0  0
    2.4640   -1.4140    0.9042 H   0  0  0  0  0  0  0  0  0  0  0  0
    0.6740   -0.7314   -2.6067 H   0  0  0  0  0  0  0  0  0  0  0  0
    2.3650   -0.5601   -3.0936 H   0  0  0  0  0  0  0  0  0  0  0  0
    1.4815   -3.3946   -0.1289 H   0  0  0  0  0  0  0  0  0  0  0  0
    0.1338   -2.4634   -0.7944 H   0  0  0  0  0  0  0  0  0  0  0  0
    0.7404    0.7727    1.9425 H   0  0  0  0  0  0  0  0  0  0  0  0
    1.0701    1.9865    0.6864 H   0  0  0  0  0  0  0  0  0  0  0  0
    2.4001    1.0159    1.3543 H   0  0  0  0  0  0  0  0  0  0  0  0
    3.5344  -10.9478   -0.4870 H   0  0  0  0  0  0  0  0  0  0  0  0
    5.0685  -10.1343   -0.0481 H   0  0  0  0  0  0  0  0  0  0  0  0
    4.7912  -10.6799   -1.7231 H   0  0  0  0  0  0  0  0  0  0  0  0
    2.1256   -2.7244   -3.7199 H   0  0  0  0  0  0  0  0  0  0  0  0
    0.7152   -3.3149   -2.8402 H   0  0  0  0  0  0  0  0  0  0  0  0
  1  3  2  0  0  0  0
  1  5  1  0  0  0  0
  2  4  1  0  0  0  0
  2  5  2  0  0  0  0
  3  6  1  0  0  0  0
  4  6  2  0  0  0  0
  5  7  1  0  0  0  0
  6 14  1  0  0  0  0
  7 17  2  0  0  0  0
  7 18  1  0  0  0  0
  8 10  1  0  0  0  0
  8 15  1  0  0  0  0
  9 11  1  0  0  0  0
  9 15  1  0  0  0  0
 10 16  1  0  0  0  0
 11 16  1  0  0  0  0
 12 15  1  0  0  0  0
 13 18  1  0  0  0  0
 14 16  1  0  0  0  0
  1 19  1  0  0  0  0
  2 20  1  0  0  0  0
  3 21  1  0  0  0  0
  4 22  1  0  0  0  0
  8 23  1  0  0  0  0
  8 24  1  0  0  0  0
  9 25  1  0  0  0  0
  9 26  1  0  0  0  0
 10 27  1  0  0  0  0
 10 28  1  0  0  0  0
 11 29  1  0  0  0  0
 11 30  1  0  0  0  0
 12 31  1  0  0  0  0
 12 32  1  0  0  0  0
 12 33  1  0  0  0  0
 13 34  1  0  0  0  0
 13 35  1  0  0  0  0
 13 36  1  0  0  0  0
 14 37  1  0  0  0  0
 14 38  1  0  0  0  0
M  END
$$$$
frag.vs.216
  -OEChem-01121112263D

 37 38  0     0  0  0  0  0  0999 V2000
    3.9041   -4.4947   -2.6490 C   0  0  0  0  0  0  0  0  0  0  0  0
    1.8216   -5.5289   -1.9927 C   0  0  0  0  0  0  0  0  0  0  0  0
    4.5818   -5.6811   -2.3683 C   0  0  0  0  0  0  0  0  0  0  0  0
    2.4993   -6.7153   -1.7120 C   0  0  0  0  0  0  0  0  0  0  0  0
    2.5240   -4.4186   -2.4612 C   0  0  0  0  0  0  0  0  0  0  0  0
    3.8794   -6.7914   -1.8998 C   0  0  0  0  0  0  0  0  0  0  0  0
    1.9353    0.2733   -1.1624 C   0  0  0  0  0  0  0  0  0  0  0  0
    1.4286   -1.3561    0.5417 C   0  0  0  0  0  0  0  0  0  0  0  0
    1.7095   -0.7884   -2.2443 C   0  0  0  0  0  0  0  0  0  0  0  0
    1.2016   -2.4171   -0.5406 C   0  0  0  0  0  0  0  0  0  0  0  0
    1.3470    0.9974    1.0613 C   0  0  0  0  0  0  0  0  0  0  0  0
    1.7938   -3.1419   -2.7630 C   0  0  0  0  0  0  0  0  0  0  0  0
    4.6045   -8.0601   -1.6016 C   0  0  0  0  0  0  0  0  0  0  0  0
    1.1274   -0.0138    0.0291 N   0  0  0  0  0  0  0  0  0  0  0  0
    2.0113   -2.1302   -1.7310 N   0  0  0  0  0  0  0  0  0  0  0  0
    4.7706   -8.2765   -0.1867 N   0  0  0  0  0  0  0  0  0  0  0  0
    4.4596   -3.6343   -3.0130 H   0  0  0  0  0  0  0  0  0  0  0  0
    0.7460   -5.4786   -1.8447 H   0  0  0  0  0  0  0  0  0  0  0  0
    5.6568   -5.7318   -2.5190 H   0  0  0  0  0  0  0  0  0  0  0  0
    1.9444   -7.5757   -1.3472 H   0  0  0  0  0  0  0  0  0  0  0  0
    3.0034    0.3206   -0.9093 H   0  0  0  0  0  0  0  0  0  0  0  0
    1.6541    1.2502   -1.5743 H   0  0  0  0  0  0  0  0  0  0  0  0
    0.7725   -1.5840    1.3905 H   0  0  0  0  0  0  0  0  0  0  0  0
    2.4640   -1.4140    0.9042 H   0  0  0  0  0  0  0  0  0  0  0  0
    0.6740   -0.7314   -2.6067 H   0  0  0  0  0  0  0  0  0  0  0  0
    2.3650   -0.5601   -3.0936 H   0  0  0  0  0  0  0  0  0  0  0  0
    1.4815   -3.3946   -0.1289 H   0  0  0  0  0  0  0  0  0  0  0  0
    0.1338   -2.4634   -0.7944 H   0  0  0  0  0  0  0  0  0  0  0  0
    0.7404    0.7727    1.9425 H   0  0  0  0  0  0  0  0  0  0  0  0
    1.0701    1.9865    0.6864 H   0  0  0  0  0  0  0  0  0  0  0  0
    2.4001    1.0159    1.3543 H   0  0  0  0  0  0  0  0  0  0  0  0
    2.1256   -2.7244   -3.7199 H   0  0  0  0  0  0  0  0  0  0  0  0
    0.7152   -3.3149   -2.8402 H   0  0  0  0  0  0  0  0  0  0  0  0
    4.0666   -8.9284   -2.0072 H   0  0  0  0  0  0  0  0  0  0  0  0
    5.6058   -8.0678   -2.0537 H   0  0  0  0  0  0  0  0  0  0  0  0
    5.5393   -8.8409    0.1342 H   0  0  0  0  0  0  0  0  0  0  0  0
    4.0164   -8.0385    0.4356 H   0  0  0  0  0  0  0  0  0  0  0  0
  1  3  2  0  0  0  0
  1  5  1  0  0  0  0
  2  4  1  0  0  0  0
  2  5  2  0  0  0  0
  3  6  1  0  0  0  0
  4  6  2  0  0  0  0
  5 12  1  0  0  0  0
  6 13  1  0  0  0  0
  7  9  1  0  0  0  0
  7 14  1  0  0  0  0
  8 10  1  0  0  0  0
  8 14  1  0  0  0  0
  9 15  1  0  0  0  0
 10 15  1  0  0  0  0
 11 14  1  0  0  0  0
 12 15  1  0  0  0  0
 13 16  1  0  0  0  0
  1 17  1  0  0  0  0
  2 18  1  0  0  0  0
  3 19  1  0  0  0  0
  4 20  1  0  0  0  0
  7 21  1  0  0  0  0
  7 22  1  0  0  0  0
  8 23  1  0  0  0  0
  8 24  1  0  0  0  0
  9 25  1  0  0  0  0
  9 26  1  0  0  0  0
 10 27  1  0  0  0  0
 10 28  1  0  0  0  0
 11 29  1  0  0  0  0
 11 30  1  0  0  0  0
 11 31  1  0  0  0  0
 12 32  1  0  0  0  0
 12 33  1  0  0  0  0
 13 34  1  0  0  0  0
 13 35  1  0  0  0  0
 16 36  1  0  0  0  0
 16 37  1  0  0  0  0
M  END
$$$$
frag.vs.217
  -OEChem-01121112263D

 36 37  0     0  0  0  0  0  0999 V2000
    3.9041   -4.4947   -2.6490 C   0  0  0  0  0  0  0  0  0  0  0  0
    1.8216   -5.5289   -1.9927 C   0  0  0  0  0  0  0  0  0  0  0  0
    4.5818   -5.6811   -2.3683 C   0  0  0  0  0  0  0  0  0  0  0  0
    2.4993   -6.7153   -1.7120 C   0  0  0  0  0  0  0  0  0  0  0  0
    2.5240   -4.4186   -2.4612 C   0  0  0  0  0  0  0  0  0  0  0  0
    3.8794   -6.7914   -1.8998 C   0  0  0  0  0  0  0  0  0  0  0  0
    1.9353    0.2733   -1.1624 C   0  0  0  0  0  0  0  0  0  0  0  0
    1.4286   -1.3561    0.5417 C   0  0  0  0  0  0  0  0  0  0  0  0
    1.7095   -0.7884   -2.2443 C   0  0  0  0  0  0  0  0  0  0  0  0
    1.2016   -2.4171   -0.5406 C   0  0  0  0  0  0  0  0  0  0  0  0
    1.3470    0.9974    1.0613 C   0  0  0  0  0  0  0  0  0  0  0  0
    1.7938   -3.1419   -2.7630 C   0  0  0  0  0  0  0  0  0  0  0  0
    4.6045   -8.0601   -1.6016 C   0  0  0  0  0  0  0  0  0  0  0  0
    1.1274   -0.0138    0.0291 N   0  0  0  0  0  0  0  0  0  0  0  0
    2.0113   -2.1302   -1.7310 N   0  0  0  0  0  0  0  0  0  0  0  0
    4.7264   -8.2145   -0.1929 O   0  0  0  0  0  0  0  0  0  0  0  0
    4.4596   -3.6343   -3.0130 H   0  0  0  0  0  0  0  0  0  0  0  0
    0.7460   -5.4786   -1.8447 H   0  0  0  0  0  0  0  0  0  0  0  0
    5.6568   -5.7318   -2.5190 H   0  0  0  0  0  0  0  0  0  0  0  0
    1.9444   -7.5757   -1.3472 H   0  0  0  0  0  0  0  0  0  0  0  0
    3.0034    0.3206   -0.9093 H   0  0  0  0  0  0  0  0  0  0  0  0
    1.6541    1.2502   -1.5743 H   0  0  0  0  0  0  0  0  0  0  0  0
    0.7725   -1.5840    1.3905 H   0  0  0  0  0  0  0  0  0  0  0  0
    2.4640   -1.4140    0.9042 H   0  0  0  0  0  0  0  0  0  0  0  0
    0.6740   -0.7314   -2.6067 H   0  0  0  0  0  0  0  0  0  0  0  0
    2.3650   -0.5601   -3.0936 H   0  0  0  0  0  0  0  0  0  0  0  0
    1.4815   -3.3946   -0.1289 H   0  0  0  0  0  0  0  0  0  0  0  0
    0.1338   -2.4634   -0.7944 H   0  0  0  0  0  0  0  0  0  0  0  0
    0.7404    0.7727    1.9425 H   0  0  0  0  0  0  0  0  0  0  0  0
    1.0701    1.9865    0.6864 H   0  0  0  0  0  0  0  0  0  0  0  0
    2.4001    1.0159    1.3543 H   0  0  0  0  0  0  0  0  0  0  0  0
    2.1256   -2.7244   -3.7199 H   0  0  0  0  0  0  0  0  0  0  0  0
    0.7152   -3.3149   -2.8402 H   0  0  0  0  0  0  0  0  0  0  0  0
    4.0706   -8.9313   -2.0052 H   0  0  0  0  0  0  0  0  0  0  0  0
    5.6098   -8.0561   -2.0446 H   0  0  0  0  0  0  0  0  0  0  0  0
    5.2014   -9.0477   -0.0435 H   0  0  0  0  0  0  0  0  0  0  0  0
  1  3  2  0  0  0  0
  1  5  1  0  0  0  0
  2  4  1  0  0  0  0
  2  5  2  0  0  0  0
  3  6  1  0  0  0  0
  4  6  2  0  0  0  0
  5 12  1  0  0  0  0
  6 13  1  0  0  0  0
  7  9  1  0  0  0  0
  7 14  1  0  0  0  0
  8 10  1  0  0  0  0
  8 14  1  0  0  0  0
  9 15  1  0  0  0  0
 10 15  1  0  0  0  0
 11 14  1  0  0  0  0
 12 15  1  0  0  0  0
 13 16  1  0  0  0  0
  1 17  1  0  0  0  0
  2 18  1  0  0  0  0
  3 19  1  0  0  0  0
  4 20  1  0  0  0  0
  7 21  1  0  0  0  0
  7 22  1  0  0  0  0
  8 23  1  0  0  0  0
  8 24  1  0  0  0  0
  9 25  1  0  0  0  0
  9 26  1  0  0  0  0
 10 27  1  0  0  0  0
 10 28  1  0  0  0  0
 11 29  1  0  0  0  0
 11 30  1  0  0  0  0
 11 31  1  0  0  0  0
 12 32  1  0  0  0  0
 12 33  1  0  0  0  0
 13 34  1  0  0  0  0
 13 35  1  0  0  0  0
 16 36  1  0  0  0  0
M  END
$$$$
frag.vs.218
  -OEChem-01121112263D

 25 26  0     0  0  0  0  0  0999 V2000
    1.8851   -1.0363   -0.1124 C   0  0  0  0  0  0  0  0  0  0  0  0
    2.8783   -1.6520    2.0022 C   0  0  0  0  0  0  0  0  0  0  0  0
    0.8066   -0.4630    0.5610 C   0  0  0  0  0  0  0  0  0  0  0  0
    1.7997   -1.0786    2.6757 C   0  0  0  0  0  0  0  0  0  0  0  0
    2.9395   -4.9279   -2.0141 C   0  0  0  0  0  0  0  0  0  0  0  0
    4.0216   -4.7801   -0.2352 C   0  0  0  0  0  0  0  0  0  0  0  0
    2.9210   -1.6309    0.6081 C   0  0  0  0  0  0  0  0  0  0  0  0
    0.7638   -0.4841    1.9551 C   0  0  0  0  0  0  0  0  0  0  0  0
    4.0745   -2.2441   -0.1111 C   0  0  0  0  0  0  0  0  0  0  0  0
   -0.3890    0.1306    2.6744 C   0  0  0  0  0  0  0  0  0  0  0  0
    3.5351   -5.6883   -1.0488 N   0  0  0  0  0  0  0  0  0  0  0  0
    3.0270   -3.6063   -1.8489 N   0  0  0  0  0  0  0  0  0  0  0  0
    3.7236   -3.5388   -0.7042 N   0  0  0  0  0  0  0  0  0  0  0  0
   -0.2680    1.5473    2.6369 O   0  0  0  0  0  0  0  0  0  0  0  0
    1.9098   -1.0158   -1.1988 H   0  0  0  0  0  0  0  0  0  0  0  0
    3.6818   -2.1121    2.5715 H   0  0  0  0  0  0  0  0  0  0  0  0
    0.0048   -0.0006   -0.0085 H   0  0  0  0  0  0  0  0  0  0  0  0
    1.7742   -1.0996    3.7620 H   0  0  0  0  0  0  0  0  0  0  0  0
    2.4240   -5.3498   -2.8638 H   0  0  0  0  0  0  0  0  0  0  0  0
    4.5751   -4.9596    0.6756 H   0  0  0  0  0  0  0  0  0  0  0  0
    4.4436   -1.5953   -0.9215 H   0  0  0  0  0  0  0  0  0  0  0  0
    4.9348   -2.4067    0.5578 H   0  0  0  0  0  0  0  0  0  0  0  0
   -1.3456   -0.1522    2.2142 H   0  0  0  0  0  0  0  0  0  0  0  0
   -0.4202   -0.1933    3.7237 H   0  0  0  0  0  0  0  0  0  0  0  0
   -1.0339    1.9055    3.1135 H   0  0  0  0  0  0  0  0  0  0  0  0
  1  3  1  0  0  0  0
  1  7  2  0  0  0  0
  2  4  2  0  0  0  0
  2  7  1  0  0  0  0
  3  8  2  0  0  0  0
  4  8  1  0  0  0  0
  5 11  1  0  0  0  0
  5 12  2  0  0  0  0
  6 11  2  0  0  0  0
  6 13  1  0  0  0  0
  7  9  1  0  0  0  0
  8 10  1  0  0  0  0
  9 13  1  0  0  0  0
 10 14  1  0  0  0  0
 12 13  1  0  0  0  0
  1 15  1  0  0  0  0
  2 16  1  0  0  0  0
  3 17  1  0  0  0  0
  4 18  1  0  0  0  0
  5 19  1  0  0  0  0
  6 20  1  0  0  0  0
  9 21  1  0  0  0  0
  9 22  1  0  0  0  0
 10 23  1  0  0  0  0
 10 24  1  0  0  0  0
 14 25  1  0  0  0  0
M  END
$$$$
frag.vs.219
  -OEChem-01121112263D

 35 36  0     0  0  0  0  0  0999 V2000
    4.5553   -1.4714   -5.6875 C   0  0  0  0  0  0  0  0  0  0  0  0
    3.0434   -3.3333   -5.9781 C   0  0  0  0  0  0  0  0  0  0  0  0
    3.7805   -1.0081   -4.6242 C   0  0  0  0  0  0  0  0  0  0  0  0
    2.2685   -2.8701   -4.9148 C   0  0  0  0  0  0  0  0  0  0  0  0
    4.1868   -2.6340   -6.3645 C   0  0  0  0  0  0  0  0  0  0  0  0
    2.6371   -1.7074   -4.2379 C   0  0  0  0  0  0  0  0  0  0  0  0
    0.3689   -0.3197   -0.8777 C   0  0  0  0  0  0  0  0  0  0  0  0
    0.5282    0.5439   -2.1228 C   0  0  0  0  0  0  0  0  0  0  0  0
    0.4142   -1.7962   -1.2527 C   0  0  0  0  0  0  0  0  0  0  0  0
    1.8025    0.1959   -2.8907 C   0  0  0  0  0  0  0  0  0  0  0  0
    1.6916   -2.1393   -2.0161 C   0  0  0  0  0  0  0  0  0  0  0  0
    5.6485   -2.8473   -9.7993 C   0  0  0  0  0  0  0  0  0  0  0  0
    5.0144   -3.1299   -7.5017 C   0  0  0  0  0  0  0  0  0  0  0  0
    1.8600   -1.2437   -3.1694 N   0  0  0  0  0  0  0  0  0  0  0  0
    4.8215   -2.3525   -8.6995 N   0  0  0  0  0  0  0  0  0  0  0  0
    5.4439   -0.9198   -5.9824 H   0  0  0  0  0  0  0  0  0  0  0  0
    2.7476   -4.2390   -6.5007 H   0  0  0  0  0  0  0  0  0  0  0  0
    4.0758   -0.1004   -4.1045 H   0  0  0  0  0  0  0  0  0  0  0  0
    1.3792   -3.4225   -4.6227 H   0  0  0  0  0  0  0  0  0  0  0  0
    1.1695   -0.0925   -0.1635 H   0  0  0  0  0  0  0  0  0  0  0  0
   -0.5815   -0.0898   -0.3836 H   0  0  0  0  0  0  0  0  0  0  0  0
   -0.3410    0.3971   -2.7765 H   0  0  0  0  0  0  0  0  0  0  0  0
    0.5431    1.6031   -1.8426 H   0  0  0  0  0  0  0  0  0  0  0  0
    0.3469   -2.4122   -0.3491 H   0  0  0  0  0  0  0  0  0  0  0  0
   -0.4577   -2.0382   -1.8736 H   0  0  0  0  0  0  0  0  0  0  0  0
    1.8154    0.7660   -3.8280 H   0  0  0  0  0  0  0  0  0  0  0  0
    2.6817    0.4963   -2.3061 H   0  0  0  0  0  0  0  0  0  0  0  0
    2.5589   -2.0543   -1.3487 H   0  0  0  0  0  0  0  0  0  0  0  0
    1.6316   -3.1824   -2.3513 H   0  0  0  0  0  0  0  0  0  0  0  0
    6.7044   -2.8177   -9.5182 H   0  0  0  0  0  0  0  0  0  0  0  0
    5.5036   -2.2286  -10.6891 H   0  0  0  0  0  0  0  0  0  0  0  0
    5.3776   -3.8785  -10.0416 H   0  0  0  0  0  0  0  0  0  0  0  0
    6.0852   -3.0973   -7.2561 H   0  0  0  0  0  0  0  0  0  0  0  0
    4.7772   -4.1742   -7.7474 H   0  0  0  0  0  0  0  0  0  0  0  0
    3.8391   -2.3910   -8.9889 H   0  0  0  0  0  0  0  0  0  0  0  0
  1  3  2  0  0  0  0
  1  5  1  0  0  0  0
  2  4  1  0  0  0  0
  2  5  2  0  0  0  0
  3  6  1  0  0  0  0
  4  6  2  0  0  0  0
  5 13  1  0  0  0  0
  6 14  1  0  0  0  0
  7  8  1  0  0  0  0
  7  9  1  0  0  0  0
  8 10  1  0  0  0  0
  9 11  1  0  0  0  0
 10 14  1  0  0  0  0
 11 14  1  0  0  0  0
 12 15  1  0  0  0  0
 13 15  1  0  0  0  0
  1 16  1  0  0  0  0
  2 17  1  0  0  0  0
  3 18  1  0  0  0  0
  4 19  1  0  0  0  0
  7 20  1  0  0  0  0
  7 21  1  0  0  0  0
  8 22  1  0  0  0  0
  8 23  1  0  0  0  0
  9 24  1  0  0  0  0
  9 25  1  0  0  0  0
 10 26  1  0  0  0  0
 10 27  1  0  0  0  0
 11 28  1  0  0  0  0
 11 29  1  0  0  0  0
 12 30  1  0  0  0  0
 12 31  1  0  0  0  0
 12 32  1  0  0  0  0
 13 33  1  0  0  0  0
 13 34  1  0  0  0  0
 15 35  1  0  0  0  0
M  END
$$$$
frag.vs.220
  -OEChem-01121112263D

 34 35  0     0  0  0  0  0  0999 V2000
   -1.9335   -6.4356    0.4953 C   0  0  0  0  0  0  0  0  0  0  0  0
    0.1139   -6.9714    1.6608 C   0  0  0  0  0  0  0  0  0  0  0  0
   -1.2500   -5.4920   -0.2715 C   0  0  0  0  0  0  0  0  0  0  0  0
    0.7974   -6.0279    0.8938 C   0  0  0  0  0  0  0  0  0  0  0  0
   -1.2515   -7.1752    1.4616 C   0  0  0  0  0  0  0  0  0  0  0  0
    0.1154   -5.2882   -0.0723 C   0  0  0  0  0  0  0  0  0  0  0  0
    1.1017    0.0943   -2.5266 C   0  0  0  0  0  0  0  0  0  0  0  0
   -0.5634   -0.2663   -0.8248 C   0  0  0  0  0  0  0  0  0  0  0  0
    0.2920    1.2875   -3.0260 C   0  0  0  0  0  0  0  0  0  0  0  0
   -1.3344    0.9347   -1.3650 C   0  0  0  0  0  0  0  0  0  0  0  0
    0.9621   -2.0406   -1.4116 C   0  0  0  0  0  0  0  0  0  0  0  0
    0.0396   -3.2382   -1.2755 C   0  0  0  0  0  0  0  0  0  0  0  0
    0.2058   -0.8932   -1.9086 N   0  0  0  0  0  0  0  0  0  0  0  0
   -1.9426   -8.1292    2.2370 N   0  0  0  0  0  0  0  0  0  0  0  0
   -0.4373    1.8792   -1.9501 O   0  0  0  0  0  0  0  0  0  0  0  0
    0.7869   -4.3612   -0.8258 O   0  0  0  0  0  0  0  0  0  0  0  0
   -2.9975   -6.5864    0.3318 H   0  0  0  0  0  0  0  0  0  0  0  0
    0.6551   -7.5423    2.4110 H   0  0  0  0  0  0  0  0  0  0  0  0
   -1.7867   -4.9188   -1.0227 H   0  0  0  0  0  0  0  0  0  0  0  0
    1.8611   -5.8735    1.0536 H   0  0  0  0  0  0  0  0  0  0  0  0
    1.6350   -0.3534   -3.3729 H   0  0  0  0  0  0  0  0  0  0  0  0
    1.8473    0.4388   -1.7983 H   0  0  0  0  0  0  0  0  0  0  0  0
    0.1096    0.0631   -0.0223 H   0  0  0  0  0  0  0  0  0  0  0  0
   -1.2743   -0.9836   -0.3991 H   0  0  0  0  0  0  0  0  0  0  0  0
    0.9641    2.0506   -3.4313 H   0  0  0  0  0  0  0  0  0  0  0  0
   -0.4027    0.9994   -3.8244 H   0  0  0  0  0  0  0  0  0  0  0  0
   -2.0844    0.6339   -2.1067 H   0  0  0  0  0  0  0  0  0  0  0  0
   -1.8606    1.4382   -0.5477 H   0  0  0  0  0  0  0  0  0  0  0  0
    1.4042   -1.7686   -0.4479 H   0  0  0  0  0  0  0  0  0  0  0  0
    1.7632   -2.2561   -2.1251 H   0  0  0  0  0  0  0  0  0  0  0  0
   -0.3948   -3.4890   -2.2482 H   0  0  0  0  0  0  0  0  0  0  0  0
   -0.7686   -3.0447   -0.5628 H   0  0  0  0  0  0  0  0  0  0  0  0
   -2.9300   -8.2325    2.1173 H   0  0  0  0  0  0  0  0  0  0  0  0
   -1.4526   -8.6190    2.9581 H   0  0  0  0  0  0  0  0  0  0  0  0
  1  3  1  0  0  0  0
  1  5  2  0  0  0  0
  2  4  2  0  0  0  0
  2  5  1  0  0  0  0
  3  6  2  0  0  0  0
  4  6  1  0  0  0  0
  5 14  1  0  0  0  0
  6 16  1  0  0  0  0
  7  9  1  0  0  0  0
  7 13  1  0  0  0  0
  8 10  1  0  0  0  0
  8 13  1  0  0  0  0
  9 15  1  0  0  0  0
 10 15  1  0  0  0  0
 11 12  1  0  0  0  0
 11 13  1  0  0  0  0
 12 16  1  0  0  0  0
  1 17  1  0  0  0  0
  2 18  1  0  0  0  0
  3 19  1  0  0  0  0
  4 20  1  0  0  0  0
  7 21  1  0  0  0  0
  7 22  1  0  0  0  0
  8 23  1  0  0  0  0
  8 24  1  0  0  0  0
  9 25  1  0  0  0  0
  9 26  1  0  0  0  0
 10 27  1  0  0  0  0
 10 28  1  0  0  0  0
 11 29  1  0  0  0  0
 11 30  1  0  0  0  0
 12 31  1  0  0  0  0
 12 32  1  0  0  0  0
 14 33  1  0  0  0  0
 14 34  1  0  0  0  0
M  END
$$$$
frag.vs.221
  -OEChem-01121112263D

 18 19  0     0  0  0  0  0  0999 V2000
    1.9964    0.7022    0.7641 C   0  0  0  0  0  0  0  0  0  0  0  0
    0.6318    0.5570    0.6781 C   0  0  0  0  0  0  0  0  0  0  0  0
    1.2082    1.8848    2.3608 C   0  0  0  0  0  0  0  0  0  0  0  0
    0.9217    2.7265    3.4755 C   0  0  0  0  0  0  0  0  0  0  0  0
   -0.3571    2.9368    3.8440 C   0  0  0  0  0  0  0  0  0  0  0  0
   -1.2043    1.5242    2.0732 C   0  0  0  0  0  0  0  0  0  0  0  0
   -1.4610    2.3197    3.1254 C   0  0  0  0  0  0  0  0  0  0  0  0
   -2.8510    2.5427    3.5199 C   0  0  0  0  0  0  0  0  0  0  0  0
    2.3470    1.5230    1.8058 N   0  0  0  0  0  0  0  0  0  0  0  0
    0.1222    1.3146    1.7014 N   0  0  0  0  0  0  0  0  0  0  0  0
   -3.7531    1.7372    3.3646 O   0  0  0  0  0  0  0  0  0  0  0  0
   -2.9758    3.7669    4.0762 O   0  0  0  0  0  0  0  0  0  0  0  0
    2.7450    0.2563    0.1257 H   0  0  0  0  0  0  0  0  0  0  0  0
   -0.0002   -0.0008    0.0006 H   0  0  0  0  0  0  0  0  0  0  0  0
    1.7394    3.1905    4.0158 H   0  0  0  0  0  0  0  0  0  0  0  0
   -0.5832    3.5755    4.6914 H   0  0  0  0  0  0  0  0  0  0  0  0
   -1.9700    1.0290    1.4868 H   0  0  0  0  0  0  0  0  0  0  0  0
   -3.8979    3.9533    4.3543 H   0  0  0  0  0  0  0  0  0  0  0  0
  1  2  2  0  0  0  0
  1  9  1  0  0  0  0
  2 10  1  0  0  0  0
  3  4  1  0  0  0  0
  3  9  2  0  0  0  0
  3 10  1  0  0  0  0
  4  5  2  0  0  0  0
  5  7  1  0  0  0  0
  6  7  2  0  0  0  0
  6 10  1  0  0  0  0
  7  8  1  0  0  0  0
  8 11  2  0  0  0  0
  8 12  1  0  0  0  0
  1 13  1  0  0  0  0
  2 14  1  0  0  0  0
  4 15  1  0  0  0  0
  5 16  1  0  0  0  0
  6 17  1  0  0  0  0
 12 18  1  0  0  0  0
M  END
$$$$
frag.vs.222
  -OEChem-01121112263D

 23 24  0     0  0  0  0  0  0999 V2000
   -1.7344    0.4263   -1.3687 C   0  0  0  0  0  0  0  0  0  0  0  0
   -0.8743   -0.2876   -0.5680 C   0  0  0  0  0  0  0  0  0  0  0  0
   -2.4649   -1.5815   -1.4151 C   0  0  0  0  0  0  0  0  0  0  0  0
   -3.1273   -2.8294   -1.5962 C   0  0  0  0  0  0  0  0  0  0  0  0
   -2.6540   -3.9324   -0.9850 C   0  0  0  0  0  0  0  0  0  0  0  0
   -0.8436   -2.7114    0.0403 C   0  0  0  0  0  0  0  0  0  0  0  0
   -1.4683   -3.8920   -0.1307 C   0  0  0  0  0  0  0  0  0  0  0  0
    0.0742   -7.2468    0.0104 C   0  0  0  0  0  0  0  0  0  0  0  0
   -1.0195   -5.1683    0.5044 C   0  0  0  0  0  0  0  0  0  0  0  0
   -2.7157   -0.3785   -1.8896 N   0  0  0  0  0  0  0  0  0  0  0  0
   -1.3404   -1.5771   -0.5959 N   0  0  0  0  0  0  0  0  0  0  0  0
   -0.3939   -5.9624   -0.5146 N   0  0  0  0  0  0  0  0  0  0  0  0
   -1.6961    1.4815   -1.5964 H   0  0  0  0  0  0  0  0  0  0  0  0
   -0.0002    0.0002    0.0000 H   0  0  0  0  0  0  0  0  0  0  0  0
   -4.0083   -2.8776   -2.2265 H   0  0  0  0  0  0  0  0  0  0  0  0
   -3.1555   -4.8855   -1.1201 H   0  0  0  0  0  0  0  0  0  0  0  0
    0.0403   -2.5918    0.6560 H   0  0  0  0  0  0  0  0  0  0  0  0
   -0.7620   -7.8041    0.4405 H   0  0  0  0  0  0  0  0  0  0  0  0
    0.8267   -7.0859    0.7873 H   0  0  0  0  0  0  0  0  0  0  0  0
    0.5195   -7.8429   -0.7907 H   0  0  0  0  0  0  0  0  0  0  0  0
   -1.8889   -5.6825    0.9145 H   0  0  0  0  0  0  0  0  0  0  0  0
   -0.3122   -4.9359    1.3009 H   0  0  0  0  0  0  0  0  0  0  0  0
    0.4122   -5.4644   -0.9104 H   0  0  0  0  0  0  0  0  0  0  0  0
  1  2  2  0  0  0  0
  1 10  1  0  0  0  0
  2 11  1  0  0  0  0
  3  4  1  0  0  0  0
  3 10  2  0  0  0  0
  3 11  1  0  0  0  0
  4  5  2  0  0  0  0
  5  7  1  0  0  0  0
  6  7  2  0  0  0  0
  6 11  1  0  0  0  0
  7  9  1  0  0  0  0
  8 12  1  0  0  0  0
  9 12  1  0  0  0  0
  1 13  1  0  0  0  0
  2 14  1  0  0  0  0
  4 15  1  0  0  0  0
  5 16  1  0  0  0  0
  6 17  1  0  0  0  0
  8 18  1  0  0  0  0
  8 19  1  0  0  0  0
  8 20  1  0  0  0  0
  9 21  1  0  0  0  0
  9 22  1  0  0  0  0
 12 23  1  0  0  0  0
M  END
$$$$
frag.vs.223
  -OEChem-01121112263D

 19 20  0     0  0  0  0  0  0999 V2000
   -1.7344    0.4263   -1.3687 C   0  0  0  0  0  0  0  0  0  0  0  0
   -0.8743   -0.2876   -0.5680 C   0  0  0  0  0  0  0  0  0  0  0  0
   -2.4649   -1.5815   -1.4151 C   0  0  0  0  0  0  0  0  0  0  0  0
   -3.1273   -2.8294   -1.5962 C   0  0  0  0  0  0  0  0  0  0  0  0
   -2.6540   -3.9324   -0.9850 C   0  0  0  0  0  0  0  0  0  0  0  0
   -0.8436   -2.7114    0.0403 C   0  0  0  0  0  0  0  0  0  0  0  0
   -1.4683   -3.8920   -0.1307 C   0  0  0  0  0  0  0  0  0  0  0  0
   -1.0195   -5.1683    0.5044 C   0  0  0  0  0  0  0  0  0  0  0  0
   -2.7157   -0.3785   -1.8896 N   0  0  0  0  0  0  0  0  0  0  0  0
   -1.3404   -1.5771   -0.5959 N   0  0  0  0  0  0  0  0  0  0  0  0
   -2.0494   -5.6862    1.3285 O   0  0  0  0  0  0  0  0  0  0  0  0
   -1.6961    1.4815   -1.5964 H   0  0  0  0  0  0  0  0  0  0  0  0
   -0.0002    0.0002    0.0000 H   0  0  0  0  0  0  0  0  0  0  0  0
   -4.0083   -2.8776   -2.2265 H   0  0  0  0  0  0  0  0  0  0  0  0
   -3.1555   -4.8855   -1.1201 H   0  0  0  0  0  0  0  0  0  0  0  0
    0.0403   -2.5918    0.6560 H   0  0  0  0  0  0  0  0  0  0  0  0
   -0.1296   -4.9971    1.1115 H   0  0  0  0  0  0  0  0  0  0  0  0
   -0.7886   -5.9020   -0.2686 H   0  0  0  0  0  0  0  0  0  0  0  0
   -1.7140   -6.5113    1.7179 H   0  0  0  0  0  0  0  0  0  0  0  0
  1  2  2  0  0  0  0
  1  9  1  0  0  0  0
  2 10  1  0  0  0  0
  3  4  1  0  0  0  0
  3  9  2  0  0  0  0
  3 10  1  0  0  0  0
  4  5  2  0  0  0  0
  5  7  1  0  0  0  0
  6  7  2  0  0  0  0
  6 10  1  0  0  0  0
  7  8  1  0  0  0  0
  8 11  1  0  0  0  0
  1 12  1  0  0  0  0
  2 13  1  0  0  0  0
  4 14  1  0  0  0  0
  5 15  1  0  0  0  0
  6 16  1  0  0  0  0
  8 17  1  0  0  0  0
  8 18  1  0  0  0  0
 11 19  1  0  0  0  0
M  END
$$$$
frag.vs.224
  -OEChem-01121112263D

 23 24  0     0  0  0  0  0  0999 V2000
   -2.7151    4.3237   -1.3301 C   0  0  0  0  0  0  0  0  0  0  0  0
   -0.5469    0.8976   -0.2738 C   0  0  0  0  0  0  0  0  0  0  0  0
   -1.9323    0.8440   -0.4461 C   0  0  0  0  0  0  0  0  0  0  0  0
   -4.0902    4.2376   -1.4936 C   0  0  0  0  0  0  0  0  0  0  0  0
   -0.5812    3.2417   -0.8037 C   0  0  0  0  0  0  0  0  0  0  0  0
   -1.9747    3.1875   -0.9770 C   0  0  0  0  0  0  0  0  0  0  0  0
    0.1298    2.0977   -0.4527 C   0  0  0  0  0  0  0  0  0  0  0  0
   -2.6683    1.9725   -0.7968 C   0  0  0  0  0  0  0  0  0  0  0  0
   -4.6804    3.0058   -1.2959 C   0  0  0  0  0  0  0  0  0  0  0  0
    1.5715    2.1578   -0.2742 C   0  0  0  0  0  0  0  0  0  0  0  0
   -6.1570    2.8666   -1.4610 C   0  0  0  0  0  0  0  0  0  0  0  0
   -4.0027    1.8858   -0.9548 N   0  0  0  0  0  0  0  0  0  0  0  0
    2.2685    3.1692   -0.4081 O   0  0  0  0  0  0  0  0  0  0  0  0
    2.1046    0.9528    0.0683 O   0  0  0  0  0  0  0  0  0  0  0  0
   -2.2245    5.2827   -1.4800 H   0  0  0  0  0  0  0  0  0  0  0  0
   -0.0095   -0.0067    0.0003 H   0  0  0  0  0  0  0  0  0  0  0  0
   -2.4392   -0.1081   -0.3002 H   0  0  0  0  0  0  0  0  0  0  0  0
   -4.6700    5.1123   -1.7669 H   0  0  0  0  0  0  0  0  0  0  0  0
   -0.0516    4.1824   -0.9443 H   0  0  0  0  0  0  0  0  0  0  0  0
   -6.4017    2.6080   -2.4981 H   0  0  0  0  0  0  0  0  0  0  0  0
   -6.5587    2.0858   -0.8029 H   0  0  0  0  0  0  0  0  0  0  0  0
   -6.6754    3.7987   -1.2023 H   0  0  0  0  0  0  0  0  0  0  0  0
    3.0773    0.9829    0.1920 H   0  0  0  0  0  0  0  0  0  0  0  0
  1  4  2  0  0  0  0
  1  6  1  0  0  0  0
  2  3  2  0  0  0  0
  2  7  1  0  0  0  0
  3  8  1  0  0  0  0
  4  9  1  0  0  0  0
  5  6  1  0  0  0  0
  5  7  2  0  0  0  0
  6  8  2  0  0  0  0
  7 10  1  0  0  0  0
  8 12  1  0  0  0  0
  9 11  1  0  0  0  0
  9 12  2  0  0  0  0
 10 13  2  0  0  0  0
 10 14  1  0  0  0  0
  1 15  1  0  0  0  0
  2 16  1  0  0  0  0
  3 17  1  0  0  0  0
  4 18  1  0  0  0  0
  5 19  1  0  0  0  0
 11 20  1  0  0  0  0
 11 21  1  0  0  0  0
 11 22  1  0  0  0  0
 14 23  1  0  0  0  0
M  END
$$$$
frag.vs.225
  -OEChem-01121112263D

 24 25  0     0  0  0  0  0  0999 V2000
   -2.7151    4.3237   -1.3301 C   0  0  0  0  0  0  0  0  0  0  0  0
   -0.5469    0.8976   -0.2738 C   0  0  0  0  0  0  0  0  0  0  0  0
   -1.9323    0.8440   -0.4461 C   0  0  0  0  0  0  0  0  0  0  0  0
   -4.0902    4.2376   -1.4936 C   0  0  0  0  0  0  0  0  0  0  0  0
   -0.5812    3.2417   -0.8037 C   0  0  0  0  0  0  0  0  0  0  0  0
   -1.9747    3.1875   -0.9770 C   0  0  0  0  0  0  0  0  0  0  0  0
    0.1298    2.0977   -0.4527 C   0  0  0  0  0  0  0  0  0  0  0  0
   -2.6683    1.9725   -0.7968 C   0  0  0  0  0  0  0  0  0  0  0  0
   -4.6804    3.0058   -1.2959 C   0  0  0  0  0  0  0  0  0  0  0  0
   -6.1569    2.8663   -1.4615 C   0  0  0  0  0  0  0  0  0  0  0  0
    1.6079    2.1597   -0.2697 C   0  0  0  0  0  0  0  0  0  0  0  0
   -4.0027    1.8858   -0.9548 N   0  0  0  0  0  0  0  0  0  0  0  0
    2.2395    2.2343   -1.5422 O   0  0  0  0  0  0  0  0  0  0  0  0
   -2.2234    5.2822   -1.4796 H   0  0  0  0  0  0  0  0  0  0  0  0
   -0.0081   -0.0058   -0.0001 H   0  0  0  0  0  0  0  0  0  0  0  0
   -2.4388   -0.1082   -0.2994 H   0  0  0  0  0  0  0  0  0  0  0  0
   -4.6699    5.1122   -1.7674 H   0  0  0  0  0  0  0  0  0  0  0  0
   -0.0496    4.1811   -0.9437 H   0  0  0  0  0  0  0  0  0  0  0  0
   -6.4013    2.6075   -2.4987 H   0  0  0  0  0  0  0  0  0  0  0  0
   -6.5588    2.0856   -0.8034 H   0  0  0  0  0  0  0  0  0  0  0  0
   -6.6756    3.7984   -1.2032 H   0  0  0  0  0  0  0  0  0  0  0  0
    1.9030    3.0387    0.3200 H   0  0  0  0  0  0  0  0  0  0  0  0
    1.9808    1.2705    0.2573 H   0  0  0  0  0  0  0  0  0  0  0  0
    3.1951    2.2727   -1.3773 H   0  0  0  0  0  0  0  0  0  0  0  0
  1  4  2  0  0  0  0
  1  6  1  0  0  0  0
  2  3  2  0  0  0  0
  2  7  1  0  0  0  0
  3  8  1  0  0  0  0
  4  9  1  0  0  0  0
  5  6  1  0  0  0  0
  5  7  2  0  0  0  0
  6  8  2  0  0  0  0
  7 11  1  0  0  0  0
  8 12  1  0  0  0  0
  9 10  1  0  0  0  0
  9 12  2  0  0  0  0
 11 13  1  0  0  0  0
  1 14  1  0  0  0  0
  2 15  1  0  0  0  0
  3 16  1  0  0  0  0
  4 17  1  0  0  0  0
  5 18  1  0  0  0  0
 10 19  1  0  0  0  0
 10 20  1  0  0  0  0
 10 21  1  0  0  0  0
 11 22  1  0  0  0  0
 11 23  1  0  0  0  0
 13 24  1  0  0  0  0
M  END
$$$$
frag.vs.226
  -OEChem-01121112263D

 23 23  0     0  0  0  0  0  0999 V2000
   -1.0544   -1.1765    2.5290 C   0  0  0  0  0  0  0  0  0  0  0  0
   -2.1077   -0.7840    1.6815 C   0  0  0  0  0  0  0  0  0  0  0  0
   -1.5796   -2.2013    3.2775 C   0  0  0  0  0  0  0  0  0  0  0  0
   -1.0055    0.0255   -0.4341 C   0  0  0  0  0  0  0  0  0  0  0  0
   -1.7775    1.6835    1.2954 C   0  0  0  0  0  0  0  0  0  0  0  0
   -3.4286    0.4950   -0.1338 C   0  0  0  0  0  0  0  0  0  0  0  0
   -2.0904    0.3299    0.6216 C   0  0  0  0  0  0  0  0  0  0  0  0
   -3.2181   -1.5013    1.8729 N   0  0  0  0  0  0  0  0  0  0  0  0
   -2.8654   -2.3548    2.8492 N   0  0  0  0  0  0  0  0  0  0  0  0
   -1.0796   -2.9831    4.2530 N   0  0  0  0  0  0  0  0  0  0  0  0
   -0.0541   -0.7720    2.5895 H   0  0  0  0  0  0  0  0  0  0  0  0
   -0.9722    0.8062   -1.2031 H   0  0  0  0  0  0  0  0  0  0  0  0
   -0.0039   -0.0333    0.0056 H   0  0  0  0  0  0  0  0  0  0  0  0
   -1.2009   -0.9294   -0.9363 H   0  0  0  0  0  0  0  0  0  0  0  0
   -1.7547    2.5093    0.5760 H   0  0  0  0  0  0  0  0  0  0  0  0
   -2.5344    1.9349    2.0476 H   0  0  0  0  0  0  0  0  0  0  0  0
   -0.8033    1.6580    1.7980 H   0  0  0  0  0  0  0  0  0  0  0  0
   -3.3662    1.2993   -0.8768 H   0  0  0  0  0  0  0  0  0  0  0  0
   -3.7038   -0.4195   -0.6722 H   0  0  0  0  0  0  0  0  0  0  0  0
   -4.2482    0.7498    0.5482 H   0  0  0  0  0  0  0  0  0  0  0  0
   -3.5545   -3.0187    3.1797 H   0  0  0  0  0  0  0  0  0  0  0  0
   -0.0967   -2.9183    4.5628 H   0  0  0  0  0  0  0  0  0  0  0  0
   -1.6236   -3.7516    4.6774 H   0  0  0  0  0  0  0  0  0  0  0  0
  1  2  1  0  0  0  0
  1  3  2  0  0  0  0
  2  7  1  0  0  0  0
  2  8  2  0  0  0  0
  3  9  1  0  0  0  0
  3 10  1  0  0  0  0
  4  7  1  0  0  0  0
  5  7  1  0  0  0  0
  6  7  1  0  0  0  0
  8  9  1  0  0  0  0
  1 11  1  0  0  0  0
  4 12  1  0  0  0  0
  4 13  1  0  0  0  0
  4 14  1  0  0  0  0
  5 15  1  0  0  0  0
  5 16  1  0  0  0  0
  5 17  1  0  0  0  0
  6 18  1  0  0  0  0
  6 19  1  0  0  0  0
  6 20  1  0  0  0  0
  9 21  1  0  0  0  0
 10 22  1  0  0  0  0
 10 23  1  0  0  0  0
M  END
$$$$
frag.vs.227
  -OEChem-01121112263D

 23 24  0     0  0  0  0  0  0999 V2000
   -0.8772    0.5936   -0.2428 C   0  0  0  0  0  0  0  0  0  0  0  0
   -2.1248   -0.0264   -0.3346 C   0  0  0  0  0  0  0  0  0  0  0  0
   -1.8689    2.7321   -0.7717 C   0  0  0  0  0  0  0  0  0  0  0  0
   -4.4271    2.7089   -1.1762 C   0  0  0  0  0  0  0  0  0  0  0  0
   -3.1479    2.1331   -0.8722 C   0  0  0  0  0  0  0  0  0  0  0  0
   -0.7482    1.9583   -0.4586 C   0  0  0  0  0  0  0  0  0  0  0  0
   -3.2525    0.7565   -0.6503 C   0  0  0  0  0  0  0  0  0  0  0  0
   -5.4435    1.7834   -1.1782 C   0  0  0  0  0  0  0  0  0  0  0  0
   -6.8328    1.9832   -1.4352 C   0  0  0  0  0  0  0  0  0  0  0  0
   -8.5037    3.6277   -1.9853 C   0  0  0  0  0  0  0  0  0  0  0  0
    0.5199    2.5700   -0.3629 N   0  0  0  0  0  0  0  0  0  0  0  0
   -7.7115    1.0889   -1.4205 O   0  0  0  0  0  0  0  0  0  0  0  0
   -7.1375    3.2991   -1.7110 O   0  0  0  0  0  0  0  0  0  0  0  0
   -4.8813    0.2155   -0.8165 S   0  0  0  0  0  0  0  0  0  0  0  0
   -0.0060   -0.0106    0.0004 H   0  0  0  0  0  0  0  0  0  0  0  0
   -2.2163   -1.0954   -0.1644 H   0  0  0  0  0  0  0  0  0  0  0  0
   -1.7636    3.8017   -0.9404 H   0  0  0  0  0  0  0  0  0  0  0  0
   -4.5827    3.7611   -1.3831 H   0  0  0  0  0  0  0  0  0  0  0  0
   -8.5887    4.6989   -2.1839 H   0  0  0  0  0  0  0  0  0  0  0  0
   -9.1242    3.3549   -1.1279 H   0  0  0  0  0  0  0  0  0  0  0  0
   -8.8341    3.0691   -2.8642 H   0  0  0  0  0  0  0  0  0  0  0  0
    1.3080    2.0175   -0.0930 H   0  0  0  0  0  0  0  0  0  0  0  0
    0.5922    3.5607   -0.4740 H   0  0  0  0  0  0  0  0  0  0  0  0
  1  2  2  0  0  0  0
  1  6  1  0  0  0  0
  2  7  1  0  0  0  0
  3  5  1  0  0  0  0
  3  6  2  0  0  0  0
  4  5  1  0  0  0  0
  4  8  2  0  0  0  0
  5  7  2  0  0  0  0
  6 11  1  0  0  0  0
  7 14  1  0  0  0  0
  8  9  1  0  0  0  0
  8 14  1  0  0  0  0
  9 12  2  0  0  0  0
  9 13  1  0  0  0  0
 10 13  1  0  0  0  0
  1 15  1  0  0  0  0
  2 16  1  0  0  0  0
  3 17  1  0  0  0  0
  4 18  1  0  0  0  0
 10 19  1  0  0  0  0
 10 20  1  0  0  0  0
 10 21  1  0  0  0  0
 11 22  1  0  0  0  0
 11 23  1  0  0  0  0
M  END
$$$$
frag.vs.228
  -OEChem-01121112263D

 31 32  0     0  0  0  0  0  0999 V2000
    0.8054   -1.6810    3.9083 C   0  0  0  0  0  0  0  0  0  0  0  0
    1.3482   -0.6475    4.6717 C   0  0  0  0  0  0  0  0  0  0  0  0
    1.0002   -1.7045    2.5273 C   0  0  0  0  0  0  0  0  0  0  0  0
    2.0857    0.3626    4.0541 C   0  0  0  0  0  0  0  0  0  0  0  0
    1.7377   -0.6944    1.9097 C   0  0  0  0  0  0  0  0  0  0  0  0
    2.2805    0.3391    2.6731 C   0  0  0  0  0  0  0  0  0  0  0  0
    0.7537   -0.7086   -0.3650 C   0  0  0  0  0  0  0  0  0  0  0  0
    3.0973   -1.4436    0.0030 C   0  0  0  0  0  0  0  0  0  0  0  0
    1.1590   -0.2571   -1.7703 C   0  0  0  0  0  0  0  0  0  0  0  0
    3.4272   -0.9673   -1.4135 C   0  0  0  0  0  0  0  0  0  0  0  0
    2.5985   -0.6737   -3.6556 C   0  0  0  0  0  0  0  0  0  0  0  0
    1.9200   -0.7367    0.5229 N   0  0  0  0  0  0  0  0  0  0  0  0
    2.2568   -1.0796   -2.2928 N   0  0  0  0  0  0  0  0  0  0  0  0
    3.0308    1.3721    2.0681 N   0  0  0  0  0  0  0  0  0  0  0  0
    0.2317   -2.4677    4.3893 H   0  0  0  0  0  0  0  0  0  0  0  0
    1.1972   -0.6298    5.7471 H   0  0  0  0  0  0  0  0  0  0  0  0
    0.5721   -2.5150    1.9428 H   0  0  0  0  0  0  0  0  0  0  0  0
    2.5044    1.1625    4.6596 H   0  0  0  0  0  0  0  0  0  0  0  0
   -0.0020   -0.0153    0.0249 H   0  0  0  0  0  0  0  0  0  0  0  0
    0.2971   -1.7063   -0.4116 H   0  0  0  0  0  0  0  0  0  0  0  0
    2.9088   -2.5254   -0.0007 H   0  0  0  0  0  0  0  0  0  0  0  0
    3.9646   -1.2596    0.6493 H   0  0  0  0  0  0  0  0  0  0  0  0
    0.2822   -0.3423   -2.4238 H   0  0  0  0  0  0  0  0  0  0  0  0
    1.4461    0.8030   -1.7464 H   0  0  0  0  0  0  0  0  0  0  0  0
    3.7869    0.0699   -1.3772 H   0  0  0  0  0  0  0  0  0  0  0  0
    4.2479   -1.5836   -1.8002 H   0  0  0  0  0  0  0  0  0  0  0  0
    3.4162   -1.2904   -4.0375 H   0  0  0  0  0  0  0  0  0  0  0  0
    2.9111    0.3739   -3.6708 H   0  0  0  0  0  0  0  0  0  0  0  0
    1.7328   -0.7906   -4.3131 H   0  0  0  0  0  0  0  0  0  0  0  0
    3.3668    2.1234    2.6340 H   0  0  0  0  0  0  0  0  0  0  0  0
    3.1306    1.3813    1.0743 H   0  0  0  0  0  0  0  0  0  0  0  0
  1  2  1  0  0  0  0
  1  3  2  0  0  0  0
  2  4  2  0  0  0  0
  3  5  1  0  0  0  0
  4  6  1  0  0  0  0
  5  6  2  0  0  0  0
  5 12  1  0  0  0  0
  6 14  1  0  0  0  0
  7  9  1  0  0  0  0
  7 12  1  0  0  0  0
  8 10  1  0  0  0  0
  8 12  1  0  0  0  0
  9 13  1  0  0  0  0
 10 13  1  0  0  0  0
 11 13  1  0  0  0  0
  1 15  1  0  0  0  0
  2 16  1  0  0  0  0
  3 17  1  0  0  0  0
  4 18  1  0  0  0  0
  7 19  1  0  0  0  0
  7 20  1  0  0  0  0
  8 21  1  0  0  0  0
  8 22  1  0  0  0  0
  9 23  1  0  0  0  0
  9 24  1  0  0  0  0
 10 25  1  0  0  0  0
 10 26  1  0  0  0  0
 11 27  1  0  0  0  0
 11 28  1  0  0  0  0
 11 29  1  0  0  0  0
 14 30  1  0  0  0  0
 14 31  1  0  0  0  0
M  END
$$$$
frag.vs.229
  -OEChem-01121112263D

 28 29  0     0  0  0  0  0  0999 V2000
    4.0366   -1.7112    6.1888 C   0  0  0  0  0  0  0  0  0  0  0  0
    3.3901   -2.4758    7.1599 C   0  0  0  0  0  0  0  0  0  0  0  0
    4.4759   -2.3100    5.0080 C   0  0  0  0  0  0  0  0  0  0  0  0
    3.6223   -4.4380    5.7696 C   0  0  0  0  0  0  0  0  0  0  0  0
    3.1830   -3.8392    6.9504 C   0  0  0  0  0  0  0  0  0  0  0  0
    4.2688   -3.6734    4.7985 C   0  0  0  0  0  0  0  0  0  0  0  0
    2.5180   -4.6256    7.9509 C   0  0  0  0  0  0  0  0  0  0  0  0
    1.6850   -6.2651    8.8983 C   0  0  0  0  0  0  0  0  0  0  0  0
    1.1687   -7.5626    9.3541 C   0  0  0  0  0  0  0  0  0  0  0  0
    6.3664   -5.7261    2.4820 C   0  0  0  0  0  0  0  0  0  0  0  0
    4.7376   -4.3124    3.5353 C   0  0  0  0  0  0  0  0  0  0  0  0
    2.2974   -5.9615    7.7818 N   0  0  0  0  0  0  0  0  0  0  0  0
    2.0772   -4.1048    9.0999 N   0  0  0  0  0  0  0  0  0  0  0  0
    5.9287   -5.0999    3.7288 N   0  0  0  0  0  0  0  0  0  0  0  0
    1.5128   -5.2141    9.7421 O   0  0  0  0  0  0  0  0  0  0  0  0
    4.1970   -0.6492    6.3513 H   0  0  0  0  0  0  0  0  0  0  0  0
    3.0545   -1.9941    8.0752 H   0  0  0  0  0  0  0  0  0  0  0  0
    4.9786   -1.7059    4.2573 H   0  0  0  0  0  0  0  0  0  0  0  0
    3.4644   -5.5010    5.5994 H   0  0  0  0  0  0  0  0  0  0  0  0
    1.9324   -8.1254    9.9205 H   0  0  0  0  0  0  0  0  0  0  0  0
    0.2842   -7.4569   10.0097 H   0  0  0  0  0  0  0  0  0  0  0  0
    0.8427   -8.2044    8.5141 H   0  0  0  0  0  0  0  0  0  0  0  0
    5.5741   -6.3655    2.0844 H   0  0  0  0  0  0  0  0  0  0  0  0
    7.2564   -6.3366    2.6578 H   0  0  0  0  0  0  0  0  0  0  0  0
    6.6074   -4.9611    1.7391 H   0  0  0  0  0  0  0  0  0  0  0  0
    3.9676   -4.9762    3.1176 H   0  0  0  0  0  0  0  0  0  0  0  0
    4.9624   -3.5631    2.7638 H   0  0  0  0  0  0  0  0  0  0  0  0
    6.6883   -4.5076    4.0791 H   0  0  0  0  0  0  0  0  0  0  0  0
  1  2  2  0  0  0  0
  1  3  1  0  0  0  0
  2  5  1  0  0  0  0
  3  6  2  0  0  0  0
  4  5  2  0  0  0  0
  4  6  1  0  0  0  0
  5  7  1  0  0  0  0
  6 11  1  0  0  0  0
  7 12  1  0  0  0  0
  7 13  2  0  0  0  0
  8  9  1  0  0  0  0
  8 12  2  0  0  0  0
  8 15  1  0  0  0  0
 10 14  1  0  0  0  0
 11 14  1  0  0  0  0
 13 15  1  0  0  0  0
  1 16  1  0  0  0  0
  2 17  1  0  0  0  0
  3 18  1  0  0  0  0
  4 19  1  0  0  0  0
  9 20  1  0  0  0  0
  9 21  1  0  0  0  0
  9 22  1  0  0  0  0
 10 23  1  0  0  0  0
 10 24  1  0  0  0  0
 10 25  1  0  0  0  0
 11 26  1  0  0  0  0
 11 27  1  0  0  0  0
 14 28  1  0  0  0  0
M  END
$$$$
frag.vs.230
  -OEChem-01121112263D

 21 22  0     0  0  0  0  0  0999 V2000
    1.8851   -1.0363   -0.1124 C   0  0  0  0  0  0  0  0  0  0  0  0
    0.8066   -0.4630    0.5610 C   0  0  0  0  0  0  0  0  0  0  0  0
    2.9210   -1.6309    0.6081 C   0  0  0  0  0  0  0  0  0  0  0  0
    1.7997   -1.0786    2.6757 C   0  0  0  0  0  0  0  0  0  0  0  0
   -0.7184    0.2682    3.9645 C   0  0  0  0  0  0  0  0  0  0  0  0
   -2.2243    1.1357    2.7801 C   0  0  0  0  0  0  0  0  0  0  0  0
    0.7638   -0.4841    1.9551 C   0  0  0  0  0  0  0  0  0  0  0  0
    2.8783   -1.6520    2.0022 C   0  0  0  0  0  0  0  0  0  0  0  0
   -0.3523    0.1086    2.6511 C   0  0  0  0  0  0  0  0  0  0  0  0
    3.9589   -2.2720    2.7526 C   0  0  0  0  0  0  0  0  0  0  0  0
   -1.9187    0.9273    4.0408 N   0  0  0  0  0  0  0  0  0  0  0  0
    4.0242   -2.3475    3.9839 O   0  0  0  0  0  0  0  0  0  0  0  0
   -1.3221    0.6676    1.8748 O   0  0  0  0  0  0  0  0  0  0  0  0
    4.9281   -2.7821    1.9441 O   0  0  0  0  0  0  0  0  0  0  0  0
    1.9192   -1.0189   -1.1980 H   0  0  0  0  0  0  0  0  0  0  0  0
    0.0062   -0.0037   -0.0145 H   0  0  0  0  0  0  0  0  0  0  0  0
    3.7562   -2.0752    0.0728 H   0  0  0  0  0  0  0  0  0  0  0  0
    1.7713   -1.0966    3.7634 H   0  0  0  0  0  0  0  0  0  0  0  0
   -0.1911   -0.0508    4.8516 H   0  0  0  0  0  0  0  0  0  0  0  0
   -3.0970    1.6292    2.3794 H   0  0  0  0  0  0  0  0  0  0  0  0
    5.6615   -3.2036    2.4410 H   0  0  0  0  0  0  0  0  0  0  0  0
  1  2  1  0  0  0  0
  1  3  2  0  0  0  0
  2  7  2  0  0  0  0
  3  8  1  0  0  0  0
  4  7  1  0  0  0  0
  4  8  2  0  0  0  0
  5  9  2  0  0  0  0
  5 11  1  0  0  0  0
  6 11  2  0  0  0  0
  6 13  1  0  0  0  0
  7  9  1  0  0  0  0
  8 10  1  0  0  0  0
  9 13  1  0  0  0  0
 10 12  2  0  0  0  0
 10 14  1  0  0  0  0
  1 15  1  0  0  0  0
  2 16  1  0  0  0  0
  3 17  1  0  0  0  0
  4 18  1  0  0  0  0
  5 19  1  0  0  0  0
  6 20  1  0  0  0  0
 14 21  1  0  0  0  0
M  END
$$$$
frag.vs.231
  -OEChem-01121112263D

 36 37  0     0  0  0  0  0  0999 V2000
   -5.0981    0.3400    2.9891 C   0  0  0  0  0  0  0  0  0  0  0  0
   -4.5262   -0.6242    3.8191 C   0  0  0  0  0  0  0  0  0  0  0  0
   -4.3669    1.4716    2.6277 C   0  0  0  0  0  0  0  0  0  0  0  0
   -2.4920    0.6749    3.9266 C   0  0  0  0  0  0  0  0  0  0  0  0
   -3.2232   -0.4567    4.2879 C   0  0  0  0  0  0  0  0  0  0  0  0
   -3.0639    1.6391    3.0965 C   0  0  0  0  0  0  0  0  0  0  0  0
   -2.6271   -1.4624    5.1529 C   0  0  0  0  0  0  0  0  0  0  0  0
    0.9810    2.8169   -0.0854 C   0  0  0  0  0  0  0  0  0  0  0  0
    1.2216    3.2602    1.3531 C   0  0  0  0  0  0  0  0  0  0  0  0
   -0.0732    1.7167   -0.1345 C   0  0  0  0  0  0  0  0  0  0  0  0
   -0.0905    3.6249    2.0495 C   0  0  0  0  0  0  0  0  0  0  0  0
   -1.3442    2.1301    0.6090 C   0  0  0  0  0  0  0  0  0  0  0  0
   -0.5665   -2.4829    5.7891 C   0  0  0  0  0  0  0  0  0  0  0  0
   -2.2769    2.8571    2.7077 C   0  0  0  0  0  0  0  0  0  0  0  0
   -1.0464    2.5099    1.9972 N   0  0  0  0  0  0  0  0  0  0  0  0
   -3.2638   -2.1758    5.9395 O   0  0  0  0  0  0  0  0  0  0  0  0
   -1.2701   -1.5257    4.9901 O   0  0  0  0  0  0  0  0  0  0  0  0
   -6.1131    0.2101    2.6249 H   0  0  0  0  0  0  0  0  0  0  0  0
   -5.1049   -1.5024    4.0941 H   0  0  0  0  0  0  0  0  0  0  0  0
   -4.8203    2.2173    1.9799 H   0  0  0  0  0  0  0  0  0  0  0  0
   -1.4763    0.8077    4.2922 H   0  0  0  0  0  0  0  0  0  0  0  0
    0.6447    3.6737   -0.6817 H   0  0  0  0  0  0  0  0  0  0  0  0
    1.9166    2.4611   -0.5306 H   0  0  0  0  0  0  0  0  0  0  0  0
    1.7183    2.4529    1.9064 H   0  0  0  0  0  0  0  0  0  0  0  0
    1.9000    4.1207    1.3664 H   0  0  0  0  0  0  0  0  0  0  0  0
   -0.3139    1.4815   -1.1774 H   0  0  0  0  0  0  0  0  0  0  0  0
    0.3327    0.8011    0.3143 H   0  0  0  0  0  0  0  0  0  0  0  0
    0.1351    3.8716    3.0941 H   0  0  0  0  0  0  0  0  0  0  0  0
   -0.5148    4.5256    1.5862 H   0  0  0  0  0  0  0  0  0  0  0  0
   -1.8313    2.9560    0.0740 H   0  0  0  0  0  0  0  0  0  0  0  0
   -2.0377    1.2805    0.5972 H   0  0  0  0  0  0  0  0  0  0  0  0
    0.5016   -2.4316    5.5643 H   0  0  0  0  0  0  0  0  0  0  0  0
   -0.9466   -3.4855    5.5772 H   0  0  0  0  0  0  0  0  0  0  0  0
   -0.7259   -2.2506    6.8447 H   0  0  0  0  0  0  0  0  0  0  0  0
   -2.8700    3.5084    2.0565 H   0  0  0  0  0  0  0  0  0  0  0  0
   -1.9999    3.4441    3.5897 H   0  0  0  0  0  0  0  0  0  0  0  0
  1  2  2  0  0  0  0
  1  3  1  0  0  0  0
  2  5  1  0  0  0  0
  3  6  2  0  0  0  0
  4  5  2  0  0  0  0
  4  6  1  0  0  0  0
  5  7  1  0  0  0  0
  6 14  1  0  0  0  0
  7 16  2  0  0  0  0
  7 17  1  0  0  0  0
  8  9  1  0  0  0  0
  8 10  1  0  0  0  0
  9 11  1  0  0  0  0
 10 12  1  0  0  0  0
 11 15  1  0  0  0  0
 12 15  1  0  0  0  0
 13 17  1  0  0  0  0
 14 15  1  0  0  0  0
  1 18  1  0  0  0  0
  2 19  1  0  0  0  0
  3 20  1  0  0  0  0
  4 21  1  0  0  0  0
  8 22  1  0  0  0  0
  8 23  1  0  0  0  0
  9 24  1  0  0  0  0
  9 25  1  0  0  0  0
 10 26  1  0  0  0  0
 10 27  1  0  0  0  0
 11 28  1  0  0  0  0
 11 29  1  0  0  0  0
 12 30  1  0  0  0  0
 12 31  1  0  0  0  0
 13 32  1  0  0  0  0
 13 33  1  0  0  0  0
 13 34  1  0  0  0  0
 14 35  1  0  0  0  0
 14 36  1  0  0  0  0
M  END
$$$$
frag.vs.232
  -OEChem-01121112263D

 38 39  0     0  0  0  0  0  0999 V2000
   -2.9481    0.0891    5.2096 C   0  0  0  0  0  0  0  0  0  0  0  0
   -2.8264    0.7818    4.0050 C   0  0  0  0  0  0  0  0  0  0  0  0
   -2.6496    0.7266    6.4139 C   0  0  0  0  0  0  0  0  0  0  0  0
   -2.1076    2.7493    5.2089 C   0  0  0  0  0  0  0  0  0  0  0  0
   -2.4061    2.1118    4.0046 C   0  0  0  0  0  0  0  0  0  0  0  0
   -2.2293    2.0566    6.4135 C   0  0  0  0  0  0  0  0  0  0  0  0
    1.4750    3.8720    0.8883 C   0  0  0  0  0  0  0  0  0  0  0  0
    0.5069    4.9768    1.2955 C   0  0  0  0  0  0  0  0  0  0  0  0
    1.3989    2.7083    1.8703 C   0  0  0  0  0  0  0  0  0  0  0  0
   -0.9063    4.4295    1.5027 C   0  0  0  0  0  0  0  0  0  0  0  0
   -0.0424    2.2330    2.0593 C   0  0  0  0  0  0  0  0  0  0  0  0
   -0.1974    3.5597    9.1691 C   0  0  0  0  0  0  0  0  0  0  0  0
   -2.2769    2.8571    2.7077 C   0  0  0  0  0  0  0  0  0  0  0  0
   -1.9094    2.7379    7.7013 C   0  0  0  0  0  0  0  0  0  0  0  0
   -0.9132    3.3373    2.4860 N   0  0  0  0  0  0  0  0  0  0  0  0
   -0.4906    2.8809    7.9075 N   0  0  0  0  0  0  0  0  0  0  0  0
   -3.2755   -0.9465    5.2098 H   0  0  0  0  0  0  0  0  0  0  0  0
   -3.0618    0.2770    3.0716 H   0  0  0  0  0  0  0  0  0  0  0  0
   -2.7465    0.1789    7.3476 H   0  0  0  0  0  0  0  0  0  0  0  0
   -1.7808    3.7865    5.2093 H   0  0  0  0  0  0  0  0  0  0  0  0
    1.2248    3.5183   -0.1193 H   0  0  0  0  0  0  0  0  0  0  0  0
    2.4972    4.2638    0.8482 H   0  0  0  0  0  0  0  0  0  0  0  0
    0.8577    5.4468    2.2232 H   0  0  0  0  0  0  0  0  0  0  0  0
    0.4929    5.7581    0.5273 H   0  0  0  0  0  0  0  0  0  0  0  0
    2.0184    1.8793    1.5100 H   0  0  0  0  0  0  0  0  0  0  0  0
    1.8124    3.0192    2.8383 H   0  0  0  0  0  0  0  0  0  0  0  0
   -1.5416    5.2509    1.8559 H   0  0  0  0  0  0  0  0  0  0  0  0
   -1.3146    4.0920    0.5408 H   0  0  0  0  0  0  0  0  0  0  0  0
   -0.4078    1.7857    1.1254 H   0  0  0  0  0  0  0  0  0  0  0  0
   -0.0439    1.4436    2.8208 H   0  0  0  0  0  0  0  0  0  0  0  0
   -0.6633    4.5484    9.1809 H   0  0  0  0  0  0  0  0  0  0  0  0
    0.8825    3.6781    9.2925 H   0  0  0  0  0  0  0  0  0  0  0  0
   -0.5845    2.9781   10.0101 H   0  0  0  0  0  0  0  0  0  0  0  0
   -2.5493    2.2138    1.8639 H   0  0  0  0  0  0  0  0  0  0  0  0
   -2.9451    3.7243    2.6845 H   0  0  0  0  0  0  0  0  0  0  0  0
   -2.3512    3.7435    7.7375 H   0  0  0  0  0  0  0  0  0  0  0  0
   -2.3111    2.1839    8.5607 H   0  0  0  0  0  0  0  0  0  0  0  0
   -0.0431    1.9589    7.9231 H   0  0  0  0  0  0  0  0  0  0  0  0
  1  2  1  0  0  0  0
  1  3  2  0  0  0  0
  2  5  2  0  0  0  0
  3  6  1  0  0  0  0
  4  5  1  0  0  0  0
  4  6  2  0  0  0  0
  5 13  1  0  0  0  0
  6 14  1  0  0  0  0
  7  8  1  0  0  0  0
  7  9  1  0  0  0  0
  8 10  1  0  0  0  0
  9 11  1  0  0  0  0
 10 15  1  0  0  0  0
 11 15  1  0  0  0  0
 12 16  1  0  0  0  0
 13 15  1  0  0  0  0
 14 16  1  0  0  0  0
  1 17  1  0  0  0  0
  2 18  1  0  0  0  0
  3 19  1  0  0  0  0
  4 20  1  0  0  0  0
  7 21  1  0  0  0  0
  7 22  1  0  0  0  0
  8 23  1  0  0  0  0
  8 24  1  0  0  0  0
  9 25  1  0  0  0  0
  9 26  1  0  0  0  0
 10 27  1  0  0  0  0
 10 28  1  0  0  0  0
 11 29  1  0  0  0  0
 11 30  1  0  0  0  0
 12 31  1  0  0  0  0
 12 32  1  0  0  0  0
 12 33  1  0  0  0  0
 13 34  1  0  0  0  0
 13 35  1  0  0  0  0
 14 36  1  0  0  0  0
 14 37  1  0  0  0  0
 16 38  1  0  0  0  0
M  END
$$$$
frag.vs.233
  -OEChem-01121112263D

 34 35  0     0  0  0  0  0  0999 V2000
   -1.6315   -4.0890    0.4462 C   0  0  0  0  0  0  0  0  0  0  0  0
   -1.1102   -4.0867    1.7400 C   0  0  0  0  0  0  0  0  0  0  0  0
   -0.9578   -3.4240   -0.5783 C   0  0  0  0  0  0  0  0  0  0  0  0
    0.7583   -2.7542    0.9848 C   0  0  0  0  0  0  0  0  0  0  0  0
    0.0846   -3.4193    2.0093 C   0  0  0  0  0  0  0  0  0  0  0  0
    0.2370   -2.7566   -0.3090 C   0  0  0  0  0  0  0  0  0  0  0  0
    0.6280   -3.4176    3.3583 C   0  0  0  0  0  0  0  0  0  0  0  0
    3.1513   -1.5896   -2.3198 C   0  0  0  0  0  0  0  0  0  0  0  0
    2.2774   -3.8333   -2.3478 C   0  0  0  0  0  0  0  0  0  0  0  0
    4.5508   -2.1625   -2.5245 C   0  0  0  0  0  0  0  0  0  0  0  0
    3.6976   -4.3534   -2.5507 C   0  0  0  0  0  0  0  0  0  0  0  0
    2.6491   -3.3326    4.6234 C   0  0  0  0  0  0  0  0  0  0  0  0
    0.9621   -2.0406   -1.4116 C   0  0  0  0  0  0  0  0  0  0  0  0
    2.3124   -2.5640   -1.6082 N   0  0  0  0  0  0  0  0  0  0  0  0
   -0.0557   -3.4789    4.3888 O   0  0  0  0  0  0  0  0  0  0  0  0
    4.4845   -3.3898   -3.2518 O   0  0  0  0  0  0  0  0  0  0  0  0
    1.9941   -3.3409    3.3504 O   0  0  0  0  0  0  0  0  0  0  0  0
   -2.5624   -4.6078    0.2367 H   0  0  0  0  0  0  0  0  0  0  0  0
   -1.6432   -4.6086    2.5307 H   0  0  0  0  0  0  0  0  0  0  0  0
   -1.3710   -3.4316   -1.5836 H   0  0  0  0  0  0  0  0  0  0  0  0
    1.6895   -2.2323    1.1933 H   0  0  0  0  0  0  0  0  0  0  0  0
    3.2275   -0.6608   -1.7431 H   0  0  0  0  0  0  0  0  0  0  0  0
    2.7095   -1.3491   -3.2956 H   0  0  0  0  0  0  0  0  0  0  0  0
    1.7979   -3.6907   -3.3252 H   0  0  0  0  0  0  0  0  0  0  0  0
    1.7003   -4.5812   -1.7921 H   0  0  0  0  0  0  0  0  0  0  0  0
    5.1582   -1.4630   -3.1076 H   0  0  0  0  0  0  0  0  0  0  0  0
    5.0631   -2.3302   -1.5693 H   0  0  0  0  0  0  0  0  0  0  0  0
    4.1802   -4.5957   -1.5960 H   0  0  0  0  0  0  0  0  0  0  0  0
    3.6773   -5.2675   -3.1527 H   0  0  0  0  0  0  0  0  0  0  0  0
    3.7301   -3.2688    4.4773 H   0  0  0  0  0  0  0  0  0  0  0  0
    2.3977   -4.2453    5.1694 H   0  0  0  0  0  0  0  0  0  0  0  0
    2.3087   -2.4644    5.1926 H   0  0  0  0  0  0  0  0  0  0  0  0
    0.4205   -2.1407   -2.3585 H   0  0  0  0  0  0  0  0  0  0  0  0
    1.0461   -0.9702   -1.1965 H   0  0  0  0  0  0  0  0  0  0  0  0
  1  2  2  0  0  0  0
  1  3  1  0  0  0  0
  2  5  1  0  0  0  0
  3  6  2  0  0  0  0
  4  5  2  0  0  0  0
  4  6  1  0  0  0  0
  5  7  1  0  0  0  0
  6 13  1  0  0  0  0
  7 15  2  0  0  0  0
  7 17  1  0  0  0  0
  8 10  1  0  0  0  0
  8 14  1  0  0  0  0
  9 11  1  0  0  0  0
  9 14  1  0  0  0  0
 10 16  1  0  0  0  0
 11 16  1  0  0  0  0
 12 17  1  0  0  0  0
 13 14  1  0  0  0  0
  1 18  1  0  0  0  0
  2 19  1  0  0  0  0
  3 20  1  0  0  0  0
  4 21  1  0  0  0  0
  8 22  1  0  0  0  0
  8 23  1  0  0  0  0
  9 24  1  0  0  0  0
  9 25  1  0  0  0  0
 10 26  1  0  0  0  0
 10 27  1  0  0  0  0
 11 28  1  0  0  0  0
 11 29  1  0  0  0  0
 12 30  1  0  0  0  0
 12 31  1  0  0  0  0
 12 32  1  0  0  0  0
 13 33  1  0  0  0  0
 13 34  1  0  0  0  0
M  END
$$$$
frag.vs.234
  -OEChem-01121112263D

 30 31  0     0  0  0  0  0  0999 V2000
    0.1533   -3.5426    1.9740 C   0  0  0  0  0  0  0  0  0  0  0  0
    0.8269   -2.8782    0.9492 C   0  0  0  0  0  0  0  0  0  0  0  0
   -1.1102   -4.0857    1.7407 C   0  0  0  0  0  0  0  0  0  0  0  0
   -1.0265   -3.2996   -0.5423 C   0  0  0  0  0  0  0  0  0  0  0  0
    0.2370   -2.7566   -0.3090 C   0  0  0  0  0  0  0  0  0  0  0  0
   -1.7001   -3.9641    0.4825 C   0  0  0  0  0  0  0  0  0  0  0  0
    0.6677   -0.5045   -3.2485 C   0  0  0  0  0  0  0  0  0  0  0  0
    0.3195    0.2456   -0.9869 C   0  0  0  0  0  0  0  0  0  0  0  0
   -0.1268    0.7019   -3.7407 C   0  0  0  0  0  0  0  0  0  0  0  0
   -0.4677    1.4336   -1.5324 C   0  0  0  0  0  0  0  0  0  0  0  0
    0.9621   -2.0406   -1.4116 C   0  0  0  0  0  0  0  0  0  0  0  0
    0.2058   -0.8932   -1.9086 N   0  0  0  0  0  0  0  0  0  0  0  0
   -2.9775   -4.5135    0.2466 N   0  0  0  0  0  0  0  0  0  0  0  0
    0.0096    1.7929   -2.8294 O   0  0  0  0  0  0  0  0  0  0  0  0
    0.6128   -3.6374    2.9537 H   0  0  0  0  0  0  0  0  0  0  0  0
    1.8112   -2.4581    1.1399 H   0  0  0  0  0  0  0  0  0  0  0  0
   -1.6262   -4.6017    2.5463 H   0  0  0  0  0  0  0  0  0  0  0  0
   -1.4849   -3.2041   -1.5240 H   0  0  0  0  0  0  0  0  0  0  0  0
    0.5306   -1.3327   -3.9530 H   0  0  0  0  0  0  0  0  0  0  0  0
    1.7358   -0.2521   -3.2236 H   0  0  0  0  0  0  0  0  0  0  0  0
    1.3725    0.5312   -0.8637 H   0  0  0  0  0  0  0  0  0  0  0  0
   -0.0775   -0.0223   -0.0011 H   0  0  0  0  0  0  0  0  0  0  0  0
    0.2572    1.0299   -4.7119 H   0  0  0  0  0  0  0  0  0  0  0  0
   -1.1895    0.4619   -3.8681 H   0  0  0  0  0  0  0  0  0  0  0  0
   -1.5419    1.2179   -1.5841 H   0  0  0  0  0  0  0  0  0  0  0  0
   -0.3354    2.3007   -0.8774 H   0  0  0  0  0  0  0  0  0  0  0  0
    1.9348   -1.6776   -1.0620 H   0  0  0  0  0  0  0  0  0  0  0  0
    1.1498   -2.7099   -2.2578 H   0  0  0  0  0  0  0  0  0  0  0  0
   -3.4293   -5.0284    0.9751 H   0  0  0  0  0  0  0  0  0  0  0  0
   -3.3689   -4.4608   -0.6721 H   0  0  0  0  0  0  0  0  0  0  0  0
  1  2  1  0  0  0  0
  1  3  2  0  0  0  0
  2  5  2  0  0  0  0
  3  6  1  0  0  0  0
  4  5  1  0  0  0  0
  4  6  2  0  0  0  0
  5 11  1  0  0  0  0
  6 13  1  0  0  0  0
  7  9  1  0  0  0  0
  7 12  1  0  0  0  0
  8 10  1  0  0  0  0
  8 12  1  0  0  0  0
  9 14  1  0  0  0  0
 10 14  1  0  0  0  0
 11 12  1  0  0  0  0
  1 15  1  0  0  0  0
  2 16  1  0  0  0  0
  3 17  1  0  0  0  0
  4 18  1  0  0  0  0
  7 19  1  0  0  0  0
  7 20  1  0  0  0  0
  8 21  1  0  0  0  0
  8 22  1  0  0  0  0
  9 23  1  0  0  0  0
  9 24  1  0  0  0  0
 10 25  1  0  0  0  0
 10 26  1  0  0  0  0
 11 27  1  0  0  0  0
 11 28  1  0  0  0  0
 13 29  1  0  0  0  0
 13 30  1  0  0  0  0
M  END
$$$$
frag.vs.235
  -OEChem-01121112263D

 23 24  0     0  0  0  0  0  0999 V2000
    1.8851   -1.0363   -0.1124 C   0  0  0  0  0  0  0  0  0  0  0  0
    0.8066   -0.4630    0.5610 C   0  0  0  0  0  0  0  0  0  0  0  0
    2.9210   -1.6309    0.6081 C   0  0  0  0  0  0  0  0  0  0  0  0
   -1.0330    1.1888    2.0952 C   0  0  0  0  0  0  0  0  0  0  0  0
   -0.7582   -0.3952    3.8840 C   0  0  0  0  0  0  0  0  0  0  0  0
    1.7997   -1.0786    2.6757 C   0  0  0  0  0  0  0  0  0  0  0  0
   -2.0987    1.7213    2.8027 C   0  0  0  0  0  0  0  0  0  0  0  0
   -1.8361    0.2083    4.5115 C   0  0  0  0  0  0  0  0  0  0  0  0
    0.7638   -0.4841    1.9551 C   0  0  0  0  0  0  0  0  0  0  0  0
   -0.3553    0.1105    2.6531 C   0  0  0  0  0  0  0  0  0  0  0  0
    2.8783   -1.6520    2.0022 C   0  0  0  0  0  0  0  0  0  0  0  0
   -2.5192    1.2572    4.0008 N   0  0  0  0  0  0  0  0  0  0  0  0
    3.9261   -2.2529    2.7302 N   0  0  0  0  0  0  0  0  0  0  0  0
    1.9182   -1.0198   -1.1979 H   0  0  0  0  0  0  0  0  0  0  0  0
    0.0071   -0.0028   -0.0150 H   0  0  0  0  0  0  0  0  0  0  0  0
    3.7566   -2.0750    0.0730 H   0  0  0  0  0  0  0  0  0  0  0  0
   -0.7489    1.6103    1.1363 H   0  0  0  0  0  0  0  0  0  0  0  0
   -0.2532   -1.2351    4.3503 H   0  0  0  0  0  0  0  0  0  0  0  0
    1.7707   -1.0973    3.7635 H   0  0  0  0  0  0  0  0  0  0  0  0
   -2.6613    2.5620    2.4099 H   0  0  0  0  0  0  0  0  0  0  0  0
   -2.1889   -0.1479    5.4737 H   0  0  0  0  0  0  0  0  0  0  0  0
    4.6699   -2.7014    2.2347 H   0  0  0  0  0  0  0  0  0  0  0  0
    3.8611   -2.3034    3.7268 H   0  0  0  0  0  0  0  0  0  0  0  0
  1  2  1  0  0  0  0
  1  3  2  0  0  0  0
  2  9  2  0  0  0  0
  3 11  1  0  0  0  0
  4  7  2  0  0  0  0
  4 10  1  0  0  0  0
  5  8  1  0  0  0  0
  5 10  2  0  0  0  0
  6  9  1  0  0  0  0
  6 11  2  0  0  0  0
  7 12  1  0  0  0  0
  8 12  2  0  0  0  0
  9 10  1  0  0  0  0
 11 13  1  0  0  0  0
  1 14  1  0  0  0  0
  2 15  1  0  0  0  0
  3 16  1  0  0  0  0
  4 17  1  0  0  0  0
  5 18  1  0  0  0  0
  6 19  1  0  0  0  0
  7 20  1  0  0  0  0
  8 21  1  0  0  0  0
 13 22  1  0  0  0  0
 13 23  1  0  0  0  0
M  END
$$$$
frag.vs.236
  -OEChem-01121112263D

 29 30  0     0  0  0  0  0  0999 V2000
   -4.0061    3.2119   -4.7411 C   0  0  0  0  0  0  0  0  0  0  0  0
   -4.9255    3.8238   -3.8892 C   0  0  0  0  0  0  0  0  0  0  0  0
   -3.0349    2.3566   -4.2206 C   0  0  0  0  0  0  0  0  0  0  0  0
   -3.9023    2.7253   -1.9961 C   0  0  0  0  0  0  0  0  0  0  0  0
   -4.8736    3.5805   -2.5166 C   0  0  0  0  0  0  0  0  0  0  0  0
   -2.9830    2.1133   -2.8481 C   0  0  0  0  0  0  0  0  0  0  0  0
   -0.3880   -0.4751   -2.1563 C   0  0  0  0  0  0  0  0  0  0  0  0
   -0.4932    0.2215   -0.8148 C   0  0  0  0  0  0  0  0  0  0  0  0
   -0.9846    0.5490   -3.1151 C   0  0  0  0  0  0  0  0  0  0  0  0
   -1.8473    0.9162   -0.9017 C   0  0  0  0  0  0  0  0  0  0  0  0
   -5.8562    4.2355   -1.6060 C   0  0  0  0  0  0  0  0  0  0  0  0
   -2.0029    1.2497   -2.3229 N   0  0  0  0  0  0  0  0  0  0  0  0
   -6.8778    3.3244   -1.1558 N   0  0  0  0  0  0  0  0  0  0  0  0
   -4.0466    3.4013   -5.8100 H   0  0  0  0  0  0  0  0  0  0  0  0
   -5.6790    4.4889   -4.3035 H   0  0  0  0  0  0  0  0  0  0  0  0
   -2.3235    1.8847   -4.8936 H   0  0  0  0  0  0  0  0  0  0  0  0
   -3.8635    2.5365   -0.9257 H   0  0  0  0  0  0  0  0  0  0  0  0
    0.6385   -0.7457   -2.4185 H   0  0  0  0  0  0  0  0  0  0  0  0
   -0.9951   -1.3884   -2.1540 H   0  0  0  0  0  0  0  0  0  0  0  0
   -0.4304   -0.4683    0.0313 H   0  0  0  0  0  0  0  0  0  0  0  0
    0.3068    0.9647   -0.7132 H   0  0  0  0  0  0  0  0  0  0  0  0
   -0.2229    1.2628   -3.4483 H   0  0  0  0  0  0  0  0  0  0  0  0
   -1.4196    0.0590   -3.9926 H   0  0  0  0  0  0  0  0  0  0  0  0
   -2.6533    0.2409   -0.5928 H   0  0  0  0  0  0  0  0  0  0  0  0
   -1.8723    1.8101   -0.2696 H   0  0  0  0  0  0  0  0  0  0  0  0
   -5.3598    4.6415   -0.7135 H   0  0  0  0  0  0  0  0  0  0  0  0
   -6.3624    5.0777   -2.0978 H   0  0  0  0  0  0  0  0  0  0  0  0
   -7.7743    3.6915   -0.8839 H   0  0  0  0  0  0  0  0  0  0  0  0
   -6.6222    2.3784   -0.9274 H   0  0  0  0  0  0  0  0  0  0  0  0
  1  2  1  0  0  0  0
  1  3  2  0  0  0  0
  2  5  2  0  0  0  0
  3  6  1  0  0  0  0
  4  5  1  0  0  0  0
  4  6  2  0  0  0  0
  5 11  1  0  0  0  0
  6 12  1  0  0  0  0
  7  8  1  0  0  0  0
  7  9  1  0  0  0  0
  8 10  1  0  0  0  0
  9 12  1  0  0  0  0
 10 12  1  0  0  0  0
 11 13  1  0  0  0  0
  1 14  1  0  0  0  0
  2 15  1  0  0  0  0
  3 16  1  0  0  0  0
  4 17  1  0  0  0  0
  7 18  1  0  0  0  0
  7 19  1  0  0  0  0
  8 20  1  0  0  0  0
  8 21  1  0  0  0  0
  9 22  1  0  0  0  0
  9 23  1  0  0  0  0
 10 24  1  0  0  0  0
 10 25  1  0  0  0  0
 11 26  1  0  0  0  0
 11 27  1  0  0  0  0
 13 28  1  0  0  0  0
 13 29  1  0  0  0  0
M  END
$$$$
frag.vs.237
  -OEChem-01121112263D

 28 29  0     0  0  0  0  0  0999 V2000
   -4.0061    3.2119   -4.7411 C   0  0  0  0  0  0  0  0  0  0  0  0
   -4.9255    3.8238   -3.8892 C   0  0  0  0  0  0  0  0  0  0  0  0
   -3.0349    2.3566   -4.2206 C   0  0  0  0  0  0  0  0  0  0  0  0
   -3.9023    2.7253   -1.9961 C   0  0  0  0  0  0  0  0  0  0  0  0
   -4.8736    3.5805   -2.5166 C   0  0  0  0  0  0  0  0  0  0  0  0
   -2.9830    2.1133   -2.8481 C   0  0  0  0  0  0  0  0  0  0  0  0
   -0.3880   -0.4751   -2.1563 C   0  0  0  0  0  0  0  0  0  0  0  0
   -0.4932    0.2215   -0.8148 C   0  0  0  0  0  0  0  0  0  0  0  0
   -0.9846    0.5490   -3.1151 C   0  0  0  0  0  0  0  0  0  0  0  0
   -1.8473    0.9162   -0.9017 C   0  0  0  0  0  0  0  0  0  0  0  0
   -5.8562    4.2355   -1.6060 C   0  0  0  0  0  0  0  0  0  0  0  0
   -2.0029    1.2497   -2.3229 N   0  0  0  0  0  0  0  0  0  0  0  0
   -6.8281    3.2817   -1.1949 O   0  0  0  0  0  0  0  0  0  0  0  0
   -4.0466    3.4013   -5.8100 H   0  0  0  0  0  0  0  0  0  0  0  0
   -5.6790    4.4889   -4.3035 H   0  0  0  0  0  0  0  0  0  0  0  0
   -2.3235    1.8847   -4.8936 H   0  0  0  0  0  0  0  0  0  0  0  0
   -3.8635    2.5365   -0.9257 H   0  0  0  0  0  0  0  0  0  0  0  0
    0.6385   -0.7457   -2.4185 H   0  0  0  0  0  0  0  0  0  0  0  0
   -0.9951   -1.3884   -2.1540 H   0  0  0  0  0  0  0  0  0  0  0  0
   -0.4304   -0.4683    0.0313 H   0  0  0  0  0  0  0  0  0  0  0  0
    0.3068    0.9647   -0.7132 H   0  0  0  0  0  0  0  0  0  0  0  0
   -0.2229    1.2628   -3.4483 H   0  0  0  0  0  0  0  0  0  0  0  0
   -1.4196    0.0590   -3.9926 H   0  0  0  0  0  0  0  0  0  0  0  0
   -2.6533    0.2409   -0.5928 H   0  0  0  0  0  0  0  0  0  0  0  0
   -1.8723    1.8101   -0.2696 H   0  0  0  0  0  0  0  0  0  0  0  0
   -5.3646    4.6431   -0.7120 H   0  0  0  0  0  0  0  0  0  0  0  0
   -6.3688    5.0678   -2.1077 H   0  0  0  0  0  0  0  0  0  0  0  0
   -7.4444    3.7471   -0.6070 H   0  0  0  0  0  0  0  0  0  0  0  0
  1  2  1  0  0  0  0
  1  3  2  0  0  0  0
  2  5  2  0  0  0  0
  3  6  1  0  0  0  0
  4  5  1  0  0  0  0
  4  6  2  0  0  0  0
  5 11  1  0  0  0  0
  6 12  1  0  0  0  0
  7  8  1  0  0  0  0
  7  9  1  0  0  0  0
  8 10  1  0  0  0  0
  9 12  1  0  0  0  0
 10 12  1  0  0  0  0
 11 13  1  0  0  0  0
  1 14  1  0  0  0  0
  2 15  1  0  0  0  0
  3 16  1  0  0  0  0
  4 17  1  0  0  0  0
  7 18  1  0  0  0  0
  7 19  1  0  0  0  0
  8 20  1  0  0  0  0
  8 21  1  0  0  0  0
  9 22  1  0  0  0  0
  9 23  1  0  0  0  0
 10 24  1  0  0  0  0
 10 25  1  0  0  0  0
 11 26  1  0  0  0  0
 11 27  1  0  0  0  0
 13 28  1  0  0  0  0
M  END
$$$$
frag.vs.238
  -OEChem-01121112263D

 34 35  0     0  0  0  0  0  0999 V2000
   -1.9337   -6.4354    0.4950 C   0  0  0  0  0  0  0  0  0  0  0  0
   -1.2520   -7.1754    1.4610 C   0  0  0  0  0  0  0  0  0  0  0  0
   -1.2500   -5.4918   -0.2717 C   0  0  0  0  0  0  0  0  0  0  0  0
    0.7972   -6.0281    0.8938 C   0  0  0  0  0  0  0  0  0  0  0  0
    0.1134   -6.9717    1.6604 C   0  0  0  0  0  0  0  0  0  0  0  0
    0.1154   -5.2882   -0.0723 C   0  0  0  0  0  0  0  0  0  0  0  0
    1.1017    0.0943   -2.5266 C   0  0  0  0  0  0  0  0  0  0  0  0
   -0.5634   -0.2663   -0.8248 C   0  0  0  0  0  0  0  0  0  0  0  0
    0.2920    1.2875   -3.0260 C   0  0  0  0  0  0  0  0  0  0  0  0
   -1.3344    0.9347   -1.3650 C   0  0  0  0  0  0  0  0  0  0  0  0
    0.9621   -2.0406   -1.4116 C   0  0  0  0  0  0  0  0  0  0  0  0
    0.0396   -3.2382   -1.2755 C   0  0  0  0  0  0  0  0  0  0  0  0
    0.2058   -0.8932   -1.9086 N   0  0  0  0  0  0  0  0  0  0  0  0
    0.8025   -7.7192    2.6381 N   0  0  0  0  0  0  0  0  0  0  0  0
   -0.4373    1.8792   -1.9501 O   0  0  0  0  0  0  0  0  0  0  0  0
    0.7869   -4.3612   -0.8258 O   0  0  0  0  0  0  0  0  0  0  0  0
   -2.9969   -6.5938    0.3398 H   0  0  0  0  0  0  0  0  0  0  0  0
   -1.7950   -7.9071    2.0538 H   0  0  0  0  0  0  0  0  0  0  0  0
   -1.7864   -4.9189   -1.0233 H   0  0  0  0  0  0  0  0  0  0  0  0
    1.8617   -5.8656    1.0457 H   0  0  0  0  0  0  0  0  0  0  0  0
    1.6350   -0.3534   -3.3729 H   0  0  0  0  0  0  0  0  0  0  0  0
    1.8473    0.4388   -1.7983 H   0  0  0  0  0  0  0  0  0  0  0  0
    0.1096    0.0631   -0.0223 H   0  0  0  0  0  0  0  0  0  0  0  0
   -1.2743   -0.9836   -0.3991 H   0  0  0  0  0  0  0  0  0  0  0  0
    0.9641    2.0506   -3.4313 H   0  0  0  0  0  0  0  0  0  0  0  0
   -0.4027    0.9994   -3.8244 H   0  0  0  0  0  0  0  0  0  0  0  0
   -2.0844    0.6339   -2.1067 H   0  0  0  0  0  0  0  0  0  0  0  0
   -1.8606    1.4382   -0.5477 H   0  0  0  0  0  0  0  0  0  0  0  0
    1.4042   -1.7686   -0.4479 H   0  0  0  0  0  0  0  0  0  0  0  0
    1.7632   -2.2561   -2.1251 H   0  0  0  0  0  0  0  0  0  0  0  0
   -0.3948   -3.4890   -2.2482 H   0  0  0  0  0  0  0  0  0  0  0  0
   -0.7686   -3.0447   -0.5628 H   0  0  0  0  0  0  0  0  0  0  0  0
    0.2917   -8.3578    3.2136 H   0  0  0  0  0  0  0  0  0  0  0  0
    1.7704   -7.5305    2.8036 H   0  0  0  0  0  0  0  0  0  0  0  0
  1  2  1  0  0  0  0
  1  3  2  0  0  0  0
  2  5  2  0  0  0  0
  3  6  1  0  0  0  0
  4  5  1  0  0  0  0
  4  6  2  0  0  0  0
  5 14  1  0  0  0  0
  6 16  1  0  0  0  0
  7  9  1  0  0  0  0
  7 13  1  0  0  0  0
  8 10  1  0  0  0  0
  8 13  1  0  0  0  0
  9 15  1  0  0  0  0
 10 15  1  0  0  0  0
 11 12  1  0  0  0  0
 11 13  1  0  0  0  0
 12 16  1  0  0  0  0
  1 17  1  0  0  0  0
  2 18  1  0  0  0  0
  3 19  1  0  0  0  0
  4 20  1  0  0  0  0
  7 21  1  0  0  0  0
  7 22  1  0  0  0  0
  8 23  1  0  0  0  0
  8 24  1  0  0  0  0
  9 25  1  0  0  0  0
  9 26  1  0  0  0  0
 10 27  1  0  0  0  0
 10 28  1  0  0  0  0
 11 29  1  0  0  0  0
 11 30  1  0  0  0  0
 12 31  1  0  0  0  0
 12 32  1  0  0  0  0
 14 33  1  0  0  0  0
 14 34  1  0  0  0  0
M  END
$$$$
frag.vs.239
  -OEChem-01121112263D

 23 24  0     0  0  0  0  0  0999 V2000
   -1.9685   -3.3310    2.1558 C   0  0  0  0  0  0  0  0  0  0  0  0
   -2.9414   -3.3766    3.1571 C   0  0  0  0  0  0  0  0  0  0  0  0
   -2.7798   -1.1610    1.4067 C   0  0  0  0  0  0  0  0  0  0  0  0
   -1.8881   -2.2295    1.2856 C   0  0  0  0  0  0  0  0  0  0  0  0
   -3.8097   -2.3088    3.2553 C   0  0  0  0  0  0  0  0  0  0  0  0
   -3.7310   -1.2307    2.4037 C   0  0  0  0  0  0  0  0  0  0  0  0
   -5.3608   -0.8970    3.7873 C   0  0  0  0  0  0  0  0  0  0  0  0
    1.4820   -1.8959   -0.3006 C   0  0  0  0  0  0  0  0  0  0  0  0
   -0.8401   -2.2031    0.2236 C   0  0  0  0  0  0  0  0  0  0  0  0
    0.4670   -1.9073    0.7522 N   0  0  0  0  0  0  0  0  0  0  0  0
   -4.8149   -2.1779    4.1633 O   0  0  0  0  0  0  0  0  0  0  0  0
   -4.6773   -0.2900    2.6716 O   0  0  0  0  0  0  0  0  0  0  0  0
   -1.2703   -4.1584    2.0545 H   0  0  0  0  0  0  0  0  0  0  0  0
   -3.0066   -4.2238    3.8302 H   0  0  0  0  0  0  0  0  0  0  0  0
   -2.7284   -0.3055    0.7418 H   0  0  0  0  0  0  0  0  0  0  0  0
   -6.4161   -1.0293    3.5225 H   0  0  0  0  0  0  0  0  0  0  0  0
   -5.2959   -0.2216    4.6481 H   0  0  0  0  0  0  0  0  0  0  0  0
    1.5099   -2.8646   -0.8061 H   0  0  0  0  0  0  0  0  0  0  0  0
    2.4678   -1.6935    0.1270 H   0  0  0  0  0  0  0  0  0  0  0  0
    1.2538   -1.1209   -1.0373 H   0  0  0  0  0  0  0  0  0  0  0  0
   -0.7765   -3.1708   -0.2930 H   0  0  0  0  0  0  0  0  0  0  0  0
   -1.0628   -1.4481   -0.5424 H   0  0  0  0  0  0  0  0  0  0  0  0
    0.4622   -0.9895    1.2085 H   0  0  0  0  0  0  0  0  0  0  0  0
  1  2  2  0  0  0  0
  1  4  1  0  0  0  0
  2  5  1  0  0  0  0
  3  4  2  0  0  0  0
  3  6  1  0  0  0  0
  4  9  1  0  0  0  0
  5  6  2  0  0  0  0
  5 11  1  0  0  0  0
  6 12  1  0  0  0  0
  7 11  1  0  0  0  0
  7 12  1  0  0  0  0
  8 10  1  0  0  0  0
  9 10  1  0  0  0  0
  1 13  1  0  0  0  0
  2 14  1  0  0  0  0
  3 15  1  0  0  0  0
  7 16  1  0  0  0  0
  7 17  1  0  0  0  0
  8 18  1  0  0  0  0
  8 19  1  0  0  0  0
  8 20  1  0  0  0  0
  9 21  1  0  0  0  0
  9 22  1  0  0  0  0
 10 23  1  0  0  0  0
M  END
$$$$
frag.vs.240
  -OEChem-01121112263D

 46 47  0     0  0  0  0  0  0999 V2000
    1.2166    0.1459   -5.1986 C   0  0  0  0  0  0  0  0  0  0  0  0
    1.8134   -1.6124   -3.6528 C   0  0  0  0  0  0  0  0  0  0  0  0
    0.5964    0.8454   -4.1635 C   0  0  0  0  0  0  0  0  0  0  0  0
    1.1931   -0.9128   -2.6177 C   0  0  0  0  0  0  0  0  0  0  0  0
    1.8251   -1.0831   -4.9433 C   0  0  0  0  0  0  0  0  0  0  0  0
    0.5846    0.3161   -2.8730 C   0  0  0  0  0  0  0  0  0  0  0  0
   -1.9642    2.9808    1.4412 C   0  0  0  0  0  0  0  0  0  0  0  0
    0.4480    0.8895   -0.4593 C   0  0  0  0  0  0  0  0  0  0  0  0
   -1.1554    1.9201   -2.1028 C   0  0  0  0  0  0  0  0  0  0  0  0
    0.0928    2.1328    0.3530 C   0  0  0  0  0  0  0  0  0  0  0  0
   -2.0667    2.0257   -0.8808 C   0  0  0  0  0  0  0  0  0  0  0  0
   -3.4434    5.1197    2.6330 C   0  0  0  0  0  0  0  0  0  0  0  0
   -5.4927    3.8524    1.9231 C   0  0  0  0  0  0  0  0  0  0  0  0
   -3.8896    2.8224    3.5593 C   0  0  0  0  0  0  0  0  0  0  0  0
    2.4882   -1.8320   -6.0494 C   0  0  0  0  0  0  0  0  0  0  0  0
   -4.0292    3.7383    2.3442 C   0  0  0  0  0  0  0  0  0  0  0  0
   -0.0331    1.0154   -1.8386 N   0  0  0  0  0  0  0  0  0  0  0  0
   -1.3407    2.4041    0.3316 N   0  0  0  0  0  0  0  0  0  0  0  0
    1.5384   -2.4669   -6.9275 N   0  0  0  0  0  0  0  0  0  0  0  0
   -1.3825    3.2925    2.4786 O   0  0  0  0  0  0  0  0  0  0  0  0
   -3.3096    3.1577    1.2506 O   0  0  0  0  0  0  0  0  0  0  0  0
    1.2201    0.5651   -6.2011 H   0  0  0  0  0  0  0  0  0  0  0  0
    2.2834   -2.5698   -3.4448 H   0  0  0  0  0  0  0  0  0  0  0  0
    0.1239    1.8015   -4.3737 H   0  0  0  0  0  0  0  0  0  0  0  0
    1.1894   -1.3350   -1.6161 H   0  0  0  0  0  0  0  0  0  0  0  0
    1.5345    0.7404   -0.4314 H   0  0  0  0  0  0  0  0  0  0  0  0
   -0.0154    0.0028   -0.0102 H   0  0  0  0  0  0  0  0  0  0  0  0
   -1.7380    1.5578   -2.9581 H   0  0  0  0  0  0  0  0  0  0  0  0
   -0.7674    2.9142   -2.3595 H   0  0  0  0  0  0  0  0  0  0  0  0
    0.4361    2.0200    1.3868 H   0  0  0  0  0  0  0  0  0  0  0  0
    0.5901    3.0177   -0.0627 H   0  0  0  0  0  0  0  0  0  0  0  0
   -2.8673    2.7478   -1.0733 H   0  0  0  0  0  0  0  0  0  0  0  0
   -2.5392    1.0576   -0.6744 H   0  0  0  0  0  0  0  0  0  0  0  0
   -2.3930    5.0420    2.9356 H   0  0  0  0  0  0  0  0  0  0  0  0
   -3.5058    5.7751    1.7582 H   0  0  0  0  0  0  0  0  0  0  0  0
   -3.9700    5.6016    3.4648 H   0  0  0  0  0  0  0  0  0  0  0  0
   -5.9170    2.8636    1.7149 H   0  0  0  0  0  0  0  0  0  0  0  0
   -5.5883    4.4306    0.9969 H   0  0  0  0  0  0  0  0  0  0  0  0
   -6.0993    4.3341    2.6967 H   0  0  0  0  0  0  0  0  0  0  0  0
   -4.3096    1.8314    3.3525 H   0  0  0  0  0  0  0  0  0  0  0  0
   -2.8422    2.6992    3.8533 H   0  0  0  0  0  0  0  0  0  0  0  0
   -4.4466    3.2220    4.4145 H   0  0  0  0  0  0  0  0  0  0  0  0
    3.1096   -1.1646   -6.6629 H   0  0  0  0  0  0  0  0  0  0  0  0
    3.1524   -2.6172   -5.6630 H   0  0  0  0  0  0  0  0  0  0  0  0
    1.8202   -3.2835   -7.4434 H   0  0  0  0  0  0  0  0  0  0  0  0
    0.6917   -1.9783   -7.1665 H   0  0  0  0  0  0  0  0  0  0  0  0
  1  3  2  0  0  0  0
  1  5  1  0  0  0  0
  2  4  1  0  0  0  0
  2  5  2  0  0  0  0
  3  6  1  0  0  0  0
  4  6  2  0  0  0  0
  5 15  1  0  0  0  0
  6 17  1  0  0  0  0
  7 18  1  0  0  0  0
  7 20  2  0  0  0  0
  7 21  1  0  0  0  0
  8 10  1  0  0  0  0
  8 17  1  0  0  0  0
  9 11  1  0  0  0  0
  9 17  1  0  0  0  0
 10 18  1  0  0  0  0
 11 18  1  0  0  0  0
 12 16  1  0  0  0  0
 13 16  1  0  0  0  0
 14 16  1  0  0  0  0
 15 19  1  0  0  0  0
 16 21  1  0  0  0  0
  1 22  1  0  0  0  0
  2 23  1  0  0  0  0
  3 24  1  0  0  0  0
  4 25  1  0  0  0  0
  8 26  1  0  0  0  0
  8 27  1  0  0  0  0
  9 28  1  0  0  0  0
  9 29  1  0  0  0  0
 10 30  1  0  0  0  0
 10 31  1  0  0  0  0
 11 32  1  0  0  0  0
 11 33  1  0  0  0  0
 12 34  1  0  0  0  0
 12 35  1  0  0  0  0
 12 36  1  0  0  0  0
 13 37  1  0  0  0  0
 13 38  1  0  0  0  0
 13 39  1  0  0  0  0
 14 40  1  0  0  0  0
 14 41  1  0  0  0  0
 14 42  1  0  0  0  0
 15 43  1  0  0  0  0
 15 44  1  0  0  0  0
 19 45  1  0  0  0  0
 19 46  1  0  0  0  0
M  END
$$$$
frag.vs.241
  -OEChem-01121112263D

 36 37  0     0  0  0  0  0  0999 V2000
   -3.2228   -0.4561    4.2889 C   0  0  0  0  0  0  0  0  0  0  0  0
   -5.0985    0.3404    2.9909 C   0  0  0  0  0  0  0  0  0  0  0  0
   -2.4917    0.6751    3.9266 C   0  0  0  0  0  0  0  0  0  0  0  0
   -4.3673    1.4717    2.6286 C   0  0  0  0  0  0  0  0  0  0  0  0
   -4.5262   -0.6235    3.8210 C   0  0  0  0  0  0  0  0  0  0  0  0
   -3.0639    1.6391    3.0965 C   0  0  0  0  0  0  0  0  0  0  0  0
   -5.2897   -1.8024    4.1986 C   0  0  0  0  0  0  0  0  0  0  0  0
    0.9810    2.8169   -0.0854 C   0  0  0  0  0  0  0  0  0  0  0  0
    1.2216    3.2602    1.3531 C   0  0  0  0  0  0  0  0  0  0  0  0
   -0.0732    1.7167   -0.1345 C   0  0  0  0  0  0  0  0  0  0  0  0
   -0.0905    3.6249    2.0495 C   0  0  0  0  0  0  0  0  0  0  0  0
   -1.3442    2.1301    0.6090 C   0  0  0  0  0  0  0  0  0  0  0  0
   -7.3926   -2.9007    3.9464 C   0  0  0  0  0  0  0  0  0  0  0  0
   -2.2769    2.8571    2.7077 C   0  0  0  0  0  0  0  0  0  0  0  0
   -1.0464    2.5099    1.9972 N   0  0  0  0  0  0  0  0  0  0  0  0
   -4.8650   -2.7072    4.9294 O   0  0  0  0  0  0  0  0  0  0  0  0
   -6.5413   -1.7894    3.6462 O   0  0  0  0  0  0  0  0  0  0  0  0
   -2.7678   -1.2012    4.9362 H   0  0  0  0  0  0  0  0  0  0  0  0
   -6.1132    0.2205    2.6204 H   0  0  0  0  0  0  0  0  0  0  0  0
   -1.4770    0.7976    4.2959 H   0  0  0  0  0  0  0  0  0  0  0  0
   -4.8212    2.2180    1.9818 H   0  0  0  0  0  0  0  0  0  0  0  0
    0.6447    3.6737   -0.6817 H   0  0  0  0  0  0  0  0  0  0  0  0
    1.9166    2.4611   -0.5306 H   0  0  0  0  0  0  0  0  0  0  0  0
    1.7183    2.4529    1.9064 H   0  0  0  0  0  0  0  0  0  0  0  0
    1.9000    4.1207    1.3664 H   0  0  0  0  0  0  0  0  0  0  0  0
   -0.3139    1.4815   -1.1774 H   0  0  0  0  0  0  0  0  0  0  0  0
    0.3327    0.8011    0.3143 H   0  0  0  0  0  0  0  0  0  0  0  0
    0.1351    3.8716    3.0941 H   0  0  0  0  0  0  0  0  0  0  0  0
   -0.5148    4.5256    1.5862 H   0  0  0  0  0  0  0  0  0  0  0  0
   -1.8313    2.9560    0.0740 H   0  0  0  0  0  0  0  0  0  0  0  0
   -2.0377    1.2805    0.5972 H   0  0  0  0  0  0  0  0  0  0  0  0
   -8.3557   -2.7681    3.4474 H   0  0  0  0  0  0  0  0  0  0  0  0
   -7.5367   -2.9687    5.0276 H   0  0  0  0  0  0  0  0  0  0  0  0
   -6.9208   -3.8176    3.5852 H   0  0  0  0  0  0  0  0  0  0  0  0
   -2.8700    3.5084    2.0565 H   0  0  0  0  0  0  0  0  0  0  0  0
   -1.9999    3.4441    3.5897 H   0  0  0  0  0  0  0  0  0  0  0  0
  1  3  2  0  0  0  0
  1  5  1  0  0  0  0
  2  4  1  0  0  0  0
  2  5  2  0  0  0  0
  3  6  1  0  0  0  0
  4  6  2  0  0  0  0
  5  7  1  0  0  0  0
  6 14  1  0  0  0  0
  7 16  2  0  0  0  0
  7 17  1  0  0  0  0
  8  9  1  0  0  0  0
  8 10  1  0  0  0  0
  9 11  1  0  0  0  0
 10 12  1  0  0  0  0
 11 15  1  0  0  0  0
 12 15  1  0  0  0  0
 13 17  1  0  0  0  0
 14 15  1  0  0  0  0
  1 18  1  0  0  0  0
  2 19  1  0  0  0  0
  3 20  1  0  0  0  0
  4 21  1  0  0  0  0
  8 22  1  0  0  0  0
  8 23  1  0  0  0  0
  9 24  1  0  0  0  0
  9 25  1  0  0  0  0
 10 26  1  0  0  0  0
 10 27  1  0  0  0  0
 11 28  1  0  0  0  0
 11 29  1  0  0  0  0
 12 30  1  0  0  0  0
 12 31  1  0  0  0  0
 13 32  1  0  0  0  0
 13 33  1  0  0  0  0
 13 34  1  0  0  0  0
 14 35  1  0  0  0  0
 14 36  1  0  0  0  0
M  END
$$$$
frag.vs.242
  -OEChem-01121112263D

 27 28  0     0  0  0  0  0  0999 V2000
   -0.1058   -9.5060    3.7525 C   0  0  0  0  0  0  0  0  0  0  0  0
    0.7093   -5.1032    3.3828 C   0  0  0  0  0  0  0  0  0  0  0  0
   -1.5268   -5.0937    4.2974 C   0  0  0  0  0  0  0  0  0  0  0  0
    0.7780   -3.7185    3.5363 C   0  0  0  0  0  0  0  0  0  0  0  0
   -1.4581   -3.7090    4.4510 C   0  0  0  0  0  0  0  0  0  0  0  0
    0.2863   -8.1977    4.1582 C   0  0  0  0  0  0  0  0  0  0  0  0
   -1.1910   -9.4814    2.9044 C   0  0  0  0  0  0  0  0  0  0  0  0
   -0.4431   -5.7908    3.7633 C   0  0  0  0  0  0  0  0  0  0  0  0
   -0.3057   -3.0214    4.0704 C   0  0  0  0  0  0  0  0  0  0  0  0
   -0.5142   -7.2227    3.6045 C   0  0  0  0  0  0  0  0  0  0  0  0
   -0.9238    0.6081    3.4190 C   0  0  0  0  0  0  0  0  0  0  0  0
   -0.2323   -1.5410    4.2341 C   0  0  0  0  0  0  0  0  0  0  0  0
   -0.9998   -0.8406    3.2357 N   0  0  0  0  0  0  0  0  0  0  0  0
   -1.7327   -7.8856    2.6004 S   0  0  0  0  0  0  0  0  0  0  0  0
    0.3834  -10.4190    4.0660 H   0  0  0  0  0  0  0  0  0  0  0  0
    1.5624   -5.6323    2.9647 H   0  0  0  0  0  0  0  0  0  0  0  0
   -2.4320   -5.6155    4.5991 H   0  0  0  0  0  0  0  0  0  0  0  0
    1.6797   -3.1909    3.2368 H   0  0  0  0  0  0  0  0  0  0  0  0
   -2.3075   -3.1744    4.8681 H   0  0  0  0  0  0  0  0  0  0  0  0
    1.1164   -7.9905    4.8224 H   0  0  0  0  0  0  0  0  0  0  0  0
   -1.6913  -10.3241    2.4485 H   0  0  0  0  0  0  0  0  0  0  0  0
   -1.2918    0.8810    4.4115 H   0  0  0  0  0  0  0  0  0  0  0  0
   -1.5318    1.1168    2.6660 H   0  0  0  0  0  0  0  0  0  0  0  0
    0.1109    0.9476    3.3218 H   0  0  0  0  0  0  0  0  0  0  0  0
   -0.6115   -1.2319    5.2183 H   0  0  0  0  0  0  0  0  0  0  0  0
    0.8026   -1.1786    4.1651 H   0  0  0  0  0  0  0  0  0  0  0  0
   -0.6496   -1.0685    2.2998 H   0  0  0  0  0  0  0  0  0  0  0  0
  1  6  1  0  0  0  0
  1  7  2  0  0  0  0
  2  4  2  0  0  0  0
  2  8  1  0  0  0  0
  3  5  1  0  0  0  0
  3  8  2  0  0  0  0
  4  9  1  0  0  0  0
  5  9  2  0  0  0  0
  6 10  2  0  0  0  0
  7 14  1  0  0  0  0
  8 10  1  0  0  0  0
  9 12  1  0  0  0  0
 10 14  1  0  0  0  0
 11 13  1  0  0  0  0
 12 13  1  0  0  0  0
  1 15  1  0  0  0  0
  2 16  1  0  0  0  0
  3 17  1  0  0  0  0
  4 18  1  0  0  0  0
  5 19  1  0  0  0  0
  6 20  1  0  0  0  0
  7 21  1  0  0  0  0
 11 22  1  0  0  0  0
 11 23  1  0  0  0  0
 11 24  1  0  0  0  0
 12 25  1  0  0  0  0
 12 26  1  0  0  0  0
 13 27  1  0  0  0  0
M  END
$$$$
frag.vs.243
  -OEChem-01121112263D

 28 29  0     0  0  0  0  0  0999 V2000
   -5.1171    3.2271   -2.6440 C   0  0  0  0  0  0  0  0  0  0  0  0
   -3.7585    3.5709   -4.6120 C   0  0  0  0  0  0  0  0  0  0  0  0
   -4.1473    2.3700   -2.1241 C   0  0  0  0  0  0  0  0  0  0  0  0
   -2.7886    2.7138   -4.0921 C   0  0  0  0  0  0  0  0  0  0  0  0
   -4.9228    3.8275   -3.8879 C   0  0  0  0  0  0  0  0  0  0  0  0
   -2.9830    2.1133   -2.8481 C   0  0  0  0  0  0  0  0  0  0  0  0
   -0.6880    0.0187   -0.7846 C   0  0  0  0  0  0  0  0  0  0  0  0
   -0.1934   -0.2727   -2.1869 C   0  0  0  0  0  0  0  0  0  0  0  0
   -2.0912    0.5620   -1.0288 C   0  0  0  0  0  0  0  0  0  0  0  0
   -0.7409    0.9030   -2.9879 C   0  0  0  0  0  0  0  0  0  0  0  0
   -5.9594    4.7438   -4.4448 C   0  0  0  0  0  0  0  0  0  0  0  0
   -2.0029    1.2497   -2.3229 N   0  0  0  0  0  0  0  0  0  0  0  0
   -7.0617    3.9788   -4.9168 O   0  0  0  0  0  0  0  0  0  0  0  0
   -6.0216    3.4206   -2.0736 H   0  0  0  0  0  0  0  0  0  0  0  0
   -3.5992    4.0328   -5.5826 H   0  0  0  0  0  0  0  0  0  0  0  0
   -4.3093    1.9062   -1.1545 H   0  0  0  0  0  0  0  0  0  0  0  0
   -1.8855    2.5204   -4.6652 H   0  0  0  0  0  0  0  0  0  0  0  0
   -0.6871   -0.8636   -0.1388 H   0  0  0  0  0  0  0  0  0  0  0  0
   -0.0614    0.7880   -0.3175 H   0  0  0  0  0  0  0  0  0  0  0  0
    0.8956   -0.3502   -2.2488 H   0  0  0  0  0  0  0  0  0  0  0  0
   -0.6266   -1.2122   -2.5509 H   0  0  0  0  0  0  0  0  0  0  0  0
   -2.8202   -0.2535   -1.0951 H   0  0  0  0  0  0  0  0  0  0  0  0
   -2.3938    1.2437   -0.2269 H   0  0  0  0  0  0  0  0  0  0  0  0
   -0.0563    1.7577   -2.9446 H   0  0  0  0  0  0  0  0  0  0  0  0
   -0.8966    0.6266   -4.0361 H   0  0  0  0  0  0  0  0  0  0  0  0
   -6.3217    5.4488   -3.6840 H   0  0  0  0  0  0  0  0  0  0  0  0
   -5.5586    5.3367   -5.2783 H   0  0  0  0  0  0  0  0  0  0  0  0
   -7.7093    4.6103   -5.2687 H   0  0  0  0  0  0  0  0  0  0  0  0
  1  3  1  0  0  0  0
  1  5  2  0  0  0  0
  2  4  2  0  0  0  0
  2  5  1  0  0  0  0
  3  6  2  0  0  0  0
  4  6  1  0  0  0  0
  5 11  1  0  0  0  0
  6 12  1  0  0  0  0
  7  8  1  0  0  0  0
  7  9  1  0  0  0  0
  8 10  1  0  0  0  0
  9 12  1  0  0  0  0
 10 12  1  0  0  0  0
 11 13  1  0  0  0  0
  1 14  1  0  0  0  0
  2 15  1  0  0  0  0
  3 16  1  0  0  0  0
  4 17  1  0  0  0  0
  7 18  1  0  0  0  0
  7 19  1  0  0  0  0
  8 20  1  0  0  0  0
  8 21  1  0  0  0  0
  9 22  1  0  0  0  0
  9 23  1  0  0  0  0
 10 24  1  0  0  0  0
 10 25  1  0  0  0  0
 11 26  1  0  0  0  0
 11 27  1  0  0  0  0
 13 28  1  0  0  0  0
M  END
$$$$
frag.vs.244
  -OEChem-01121112263D

 20 21  0     0  0  0  0  0  0999 V2000
   -0.8772    0.5936   -0.2428 C   0  0  0  0  0  0  0  0  0  0  0  0
   -2.1248   -0.0264   -0.3346 C   0  0  0  0  0  0  0  0  0  0  0  0
   -4.4271    2.7089   -1.1762 C   0  0  0  0  0  0  0  0  0  0  0  0
   -1.8689    2.7321   -0.7717 C   0  0  0  0  0  0  0  0  0  0  0  0
   -5.4435    1.7834   -1.1782 C   0  0  0  0  0  0  0  0  0  0  0  0
   -3.1479    2.1331   -0.8722 C   0  0  0  0  0  0  0  0  0  0  0  0
   -0.7482    1.9583   -0.4586 C   0  0  0  0  0  0  0  0  0  0  0  0
   -3.2525    0.7565   -0.6503 C   0  0  0  0  0  0  0  0  0  0  0  0
    0.5921    2.6050   -0.3563 C   0  0  0  0  0  0  0  0  0  0  0  0
    1.1474    2.9213   -1.6476 N   0  0  0  0  0  0  0  0  0  0  0  0
   -4.8813    0.2155   -0.8165 S   0  0  0  0  0  0  0  0  0  0  0  0
   -0.0053   -0.0084    0.0014 H   0  0  0  0  0  0  0  0  0  0  0  0
   -2.2164   -1.0954   -0.1645 H   0  0  0  0  0  0  0  0  0  0  0  0
   -4.5880    3.7596   -1.3838 H   0  0  0  0  0  0  0  0  0  0  0  0
   -1.7626    3.8017   -0.9382 H   0  0  0  0  0  0  0  0  0  0  0  0
   -6.4918    1.9593   -1.3749 H   0  0  0  0  0  0  0  0  0  0  0  0
    0.5373    3.5405    0.2177 H   0  0  0  0  0  0  0  0  0  0  0  0
    1.3133    1.9573    0.1607 H   0  0  0  0  0  0  0  0  0  0  0  0
    2.1467    2.9839   -1.7477 H   0  0  0  0  0  0  0  0  0  0  0  0
    0.5387    3.2709   -2.3688 H   0  0  0  0  0  0  0  0  0  0  0  0
  1  2  1  0  0  0  0
  1  7  2  0  0  0  0
  2  8  2  0  0  0  0
  3  5  2  0  0  0  0
  3  6  1  0  0  0  0
  4  6  2  0  0  0  0
  4  7  1  0  0  0  0
  5 11  1  0  0  0  0
  6  8  1  0  0  0  0
  7  9  1  0  0  0  0
  8 11  1  0  0  0  0
  9 10  1  0  0  0  0
  1 12  1  0  0  0  0
  2 13  1  0  0  0  0
  3 14  1  0  0  0  0
  4 15  1  0  0  0  0
  5 16  1  0  0  0  0
  9 17  1  0  0  0  0
  9 18  1  0  0  0  0
 10 19  1  0  0  0  0
 10 20  1  0  0  0  0
M  END
$$$$
frag.vs.245
  -OEChem-01121112263D

 34 35  0     0  0  0  0  0  0999 V2000
    4.8833   -5.0123   -3.8845 C   0  0  0  0  0  0  0  0  0  0  0  0
    5.4144   -4.1428   -4.8371 C   0  0  0  0  0  0  0  0  0  0  0  0
    3.7058   -4.6786   -3.2152 C   0  0  0  0  0  0  0  0  0  0  0  0
    4.7681   -2.9396   -5.1205 C   0  0  0  0  0  0  0  0  0  0  0  0
    3.0595   -3.4754   -3.4985 C   0  0  0  0  0  0  0  0  0  0  0  0
    3.5906   -2.6059   -4.4512 C   0  0  0  0  0  0  0  0  0  0  0  0
    0.9733   -0.4226   -0.2775 C   0  0  0  0  0  0  0  0  0  0  0  0
    2.8769   -1.6606    0.5350 C   0  0  0  0  0  0  0  0  0  0  0  0
    0.7469   -1.4824   -1.3611 C   0  0  0  0  0  0  0  0  0  0  0  0
    2.6493   -2.7208   -0.5481 C   0  0  0  0  0  0  0  0  0  0  0  0
    1.8318    0.0009    1.9360 C   0  0  0  0  0  0  0  0  0  0  0  0
    1.7938   -3.1419   -2.7630 C   0  0  0  0  0  0  0  0  0  0  0  0
    1.6130   -1.0119    0.9052 N   0  0  0  0  0  0  0  0  0  0  0  0
    2.0113   -2.1302   -1.7310 N   0  0  0  0  0  0  0  0  0  0  0  0
    2.9499   -1.3836   -4.7509 N   0  0  0  0  0  0  0  0  0  0  0  0
    5.3866   -5.9491   -3.6640 H   0  0  0  0  0  0  0  0  0  0  0  0
    6.3312   -4.4027   -5.3582 H   0  0  0  0  0  0  0  0  0  0  0  0
    3.3002   -5.3630   -2.4748 H   0  0  0  0  0  0  0  0  0  0  0  0
    5.1914   -2.2699   -5.8648 H   0  0  0  0  0  0  0  0  0  0  0  0
    1.5817    0.3968   -0.6844 H   0  0  0  0  0  0  0  0  0  0  0  0
    0.0000    0.0002   -0.0003 H   0  0  0  0  0  0  0  0  0  0  0  0
    3.3113   -2.1532    1.4133 H   0  0  0  0  0  0  0  0  0  0  0  0
    3.6077   -0.9211    0.1800 H   0  0  0  0  0  0  0  0  0  0  0  0
    0.0167   -2.2225   -1.0065 H   0  0  0  0  0  0  0  0  0  0  0  0
    0.3117   -0.9900   -2.2394 H   0  0  0  0  0  0  0  0  0  0  0  0
    3.6223   -3.1450   -0.8248 H   0  0  0  0  0  0  0  0  0  0  0  0
    2.0400   -3.5394   -0.1414 H   0  0  0  0  0  0  0  0  0  0  0  0
    2.3081   -0.4499    2.8105 H   0  0  0  0  0  0  0  0  0  0  0  0
    0.8787    0.4408    2.2419 H   0  0  0  0  0  0  0  0  0  0  0  0
    2.4780    0.7957    1.5538 H   0  0  0  0  0  0  0  0  0  0  0  0
    1.0345   -2.7605   -3.4545 H   0  0  0  0  0  0  0  0  0  0  0  0
    1.3753   -4.0302   -2.2782 H   0  0  0  0  0  0  0  0  0  0  0  0
    3.3767   -0.7582   -5.4027 H   0  0  0  0  0  0  0  0  0  0  0  0
    2.1330   -1.1245   -4.2373 H   0  0  0  0  0  0  0  0  0  0  0  0
  1  2  1  0  0  0  0
  1  3  2  0  0  0  0
  2  4  2  0  0  0  0
  3  5  1  0  0  0  0
  4  6  1  0  0  0  0
  5  6  2  0  0  0  0
  5 12  1  0  0  0  0
  6 15  1  0  0  0  0
  7  9  1  0  0  0  0
  7 13  1  0  0  0  0
  8 10  1  0  0  0  0
  8 13  1  0  0  0  0
  9 14  1  0  0  0  0
 10 14  1  0  0  0  0
 11 13  1  0  0  0  0
 12 14  1  0  0  0  0
  1 16  1  0  0  0  0
  2 17  1  0  0  0  0
  3 18  1  0  0  0  0
  4 19  1  0  0  0  0
  7 20  1  0  0  0  0
  7 21  1  0  0  0  0
  8 22  1  0  0  0  0
  8 23  1  0  0  0  0
  9 24  1  0  0  0  0
  9 25  1  0  0  0  0
 10 26  1  0  0  0  0
 10 27  1  0  0  0  0
 11 28  1  0  0  0  0
 11 29  1  0  0  0  0
 11 30  1  0  0  0  0
 12 31  1  0  0  0  0
 12 32  1  0  0  0  0
 15 33  1  0  0  0  0
 15 34  1  0  0  0  0
M  END
$$$$
frag.vs.246
  -OEChem-01121112263D

 27 28  0     0  0  0  0  0  0999 V2000
    5.4373   -4.1342    3.7238 C   0  0  0  0  0  0  0  0  0  0  0  0
    5.3063   -2.8368    4.2190 C   0  0  0  0  0  0  0  0  0  0  0  0
    0.1955   -6.8481    4.1128 C   0  0  0  0  0  0  0  0  0  0  0  0
    4.3759   -5.0328    3.8325 C   0  0  0  0  0  0  0  0  0  0  0  0
    4.1139   -2.4379    4.8230 C   0  0  0  0  0  0  0  0  0  0  0  0
    1.0760   -5.8291    3.6474 C   0  0  0  0  0  0  0  0  0  0  0  0
    0.5792   -7.3429    5.3397 C   0  0  0  0  0  0  0  0  0  0  0  0
    3.1835   -4.6339    4.4365 C   0  0  0  0  0  0  0  0  0  0  0  0
    3.0525   -3.3365    4.9317 C   0  0  0  0  0  0  0  0  0  0  0  0
    2.0992   -5.5837    4.5368 C   0  0  0  0  0  0  0  0  0  0  0  0
   -0.4854   -2.1715    5.2835 C   0  0  0  0  0  0  0  0  0  0  0  0
    1.7902   -2.8727    5.5853 C   0  0  0  0  0  0  0  0  0  0  0  0
    0.7457   -2.6142    4.6291 N   0  0  0  0  0  0  0  0  0  0  0  0
    1.9958   -6.5798    5.9258 S   0  0  0  0  0  0  0  0  0  0  0  0
    6.3659   -4.4446    3.2537 H   0  0  0  0  0  0  0  0  0  0  0  0
    6.1328   -2.1374    4.1343 H   0  0  0  0  0  0  0  0  0  0  0  0
   -0.6755   -7.2001    3.5756 H   0  0  0  0  0  0  0  0  0  0  0  0
    4.4950   -6.0404    3.4411 H   0  0  0  0  0  0  0  0  0  0  0  0
    4.0225   -1.4248    5.2055 H   0  0  0  0  0  0  0  0  0  0  0  0
    0.9568   -5.3059    2.7066 H   0  0  0  0  0  0  0  0  0  0  0  0
    0.0952   -8.1156    5.9202 H   0  0  0  0  0  0  0  0  0  0  0  0
   -0.8270   -2.9293    5.9933 H   0  0  0  0  0  0  0  0  0  0  0  0
   -1.2701   -2.0062    4.5403 H   0  0  0  0  0  0  0  0  0  0  0  0
   -0.3114   -1.2367    5.8233 H   0  0  0  0  0  0  0  0  0  0  0  0
    1.4156   -3.6241    6.2923 H   0  0  0  0  0  0  0  0  0  0  0  0
    1.9519   -1.9492    6.1555 H   0  0  0  0  0  0  0  0  0  0  0  0
    1.0424   -1.8861    3.9708 H   0  0  0  0  0  0  0  0  0  0  0  0
  1  2  1  0  0  0  0
  1  4  2  0  0  0  0
  2  5  2  0  0  0  0
  3  6  1  0  0  0  0
  3  7  2  0  0  0  0
  4  8  1  0  0  0  0
  5  9  1  0  0  0  0
  6 10  2  0  0  0  0
  7 14  1  0  0  0  0
  8  9  2  0  0  0  0
  8 10  1  0  0  0  0
  9 12  1  0  0  0  0
 10 14  1  0  0  0  0
 11 13  1  0  0  0  0
 12 13  1  0  0  0  0
  1 15  1  0  0  0  0
  2 16  1  0  0  0  0
  3 17  1  0  0  0  0
  4 18  1  0  0  0  0
  5 19  1  0  0  0  0
  6 20  1  0  0  0  0
  7 21  1  0  0  0  0
 11 22  1  0  0  0  0
 11 23  1  0  0  0  0
 11 24  1  0  0  0  0
 12 25  1  0  0  0  0
 12 26  1  0  0  0  0
 13 27  1  0  0  0  0
M  END
$$$$
frag.vs.247
  -OEChem-01121112263D

 23 24  0     0  0  0  0  0  0999 V2000
    1.8851   -1.0363   -0.1124 C   0  0  0  0  0  0  0  0  0  0  0  0
    0.8066   -0.4630    0.5610 C   0  0  0  0  0  0  0  0  0  0  0  0
    5.3214   -3.8060    3.8263 C   0  0  0  0  0  0  0  0  0  0  0  0
    2.9210   -1.6309    0.6081 C   0  0  0  0  0  0  0  0  0  0  0  0
    0.7638   -0.4841    1.9551 C   0  0  0  0  0  0  0  0  0  0  0  0
    4.0988   -3.5842    3.1290 C   0  0  0  0  0  0  0  0  0  0  0  0
    6.0745   -2.6571    3.9286 C   0  0  0  0  0  0  0  0  0  0  0  0
    2.8783   -1.6520    2.0022 C   0  0  0  0  0  0  0  0  0  0  0  0
    1.7997   -1.0786    2.6757 C   0  0  0  0  0  0  0  0  0  0  0  0
    3.9639   -2.2740    2.7251 C   0  0  0  0  0  0  0  0  0  0  0  0
    1.7189   -1.0820    4.1687 C   0  0  0  0  0  0  0  0  0  0  0  0
    1.3690   -2.3846    4.6161 O   0  0  0  0  0  0  0  0  0  0  0  0
    5.3078   -1.3180    3.1860 S   0  0  0  0  0  0  0  0  0  0  0  0
    1.9182   -1.0196   -1.1979 H   0  0  0  0  0  0  0  0  0  0  0  0
    0.0001   -0.0001   -0.0002 H   0  0  0  0  0  0  0  0  0  0  0  0
    5.6328   -4.7593    4.2328 H   0  0  0  0  0  0  0  0  0  0  0  0
    3.7544   -2.0732    0.0672 H   0  0  0  0  0  0  0  0  0  0  0  0
   -0.0812   -0.0345    2.4699 H   0  0  0  0  0  0  0  0  0  0  0  0
    3.3597   -4.3527    2.9387 H   0  0  0  0  0  0  0  0  0  0  0  0
    7.0380   -2.5399    4.4043 H   0  0  0  0  0  0  0  0  0  0  0  0
    2.6789   -0.7996    4.6189 H   0  0  0  0  0  0  0  0  0  0  0  0
    0.9636   -0.3694    4.5230 H   0  0  0  0  0  0  0  0  0  0  0  0
    1.3267   -2.3462    5.5854 H   0  0  0  0  0  0  0  0  0  0  0  0
  1  2  1  0  0  0  0
  1  4  2  0  0  0  0
  2  5  2  0  0  0  0
  3  6  1  0  0  0  0
  3  7  2  0  0  0  0
  4  8  1  0  0  0  0
  5  9  1  0  0  0  0
  6 10  2  0  0  0  0
  7 13  1  0  0  0  0
  8  9  2  0  0  0  0
  8 10  1  0  0  0  0
  9 11  1  0  0  0  0
 10 13  1  0  0  0  0
 11 12  1  0  0  0  0
  1 14  1  0  0  0  0
  2 15  1  0  0  0  0
  3 16  1  0  0  0  0
  4 17  1  0  0  0  0
  5 18  1  0  0  0  0
  6 19  1  0  0  0  0
  7 20  1  0  0  0  0
 11 21  1  0  0  0  0
 11 22  1  0  0  0  0
 12 23  1  0  0  0  0
M  END
$$$$
frag.vs.248
  -OEChem-01121112263D

 46 47  0     0  0  0  0  0  0999 V2000
    2.4549   -4.5082   -1.3960 C   0  0  0  0  0  0  0  0  0  0  0  0
    1.3976   -3.7138   -1.8395 C   0  0  0  0  0  0  0  0  0  0  0  0
    2.9673   -4.3331   -0.1105 C   0  0  0  0  0  0  0  0  0  0  0  0
    0.8528   -2.7444   -0.9975 C   0  0  0  0  0  0  0  0  0  0  0  0
    2.4225   -3.3637    0.7315 C   0  0  0  0  0  0  0  0  0  0  0  0
    1.3652   -2.5693    0.2880 C   0  0  0  0  0  0  0  0  0  0  0  0
   -1.4720    1.2060    3.1322 C   0  0  0  0  0  0  0  0  0  0  0  0
   -0.3170   -1.9907    1.9828 C   0  0  0  0  0  0  0  0  0  0  0  0
    0.8256   -0.1837    0.6989 C   0  0  0  0  0  0  0  0  0  0  0  0
   -0.4276   -1.0475    3.1783 C   0  0  0  0  0  0  0  0  0  0  0  0
    0.6939    0.7364    1.9119 C   0  0  0  0  0  0  0  0  0  0  0  0
   -2.3558    3.5594    4.4997 C   0  0  0  0  0  0  0  0  0  0  0  0
   -1.9767    4.7451    2.3180 C   0  0  0  0  0  0  0  0  0  0  0  0
   -3.6820    2.9068    2.4626 C   0  0  0  0  0  0  0  0  0  0  0  0
    2.9909   -3.1978    2.1033 C   0  0  0  0  0  0  0  0  0  0  0  0
   -2.3369    3.4161    2.9786 C   0  0  0  0  0  0  0  0  0  0  0  0
    0.8062   -1.5918    1.1190 N   0  0  0  0  0  0  0  0  0  0  0  0
   -0.4471    0.3439    2.7390 N   0  0  0  0  0  0  0  0  0  0  0  0
    3.8199   -2.0255    2.2117 N   0  0  0  0  0  0  0  0  0  0  0  0
   -2.4117    0.8805    3.8554 O   0  0  0  0  0  0  0  0  0  0  0  0
   -1.3235    2.4687    2.6226 O   0  0  0  0  0  0  0  0  0  0  0  0
    2.8791   -5.2630   -2.0517 H   0  0  0  0  0  0  0  0  0  0  0  0
    0.9987   -3.8503   -2.8404 H   0  0  0  0  0  0  0  0  0  0  0  0
    3.7913   -4.9573    0.2255 H   0  0  0  0  0  0  0  0  0  0  0  0
    0.0290   -2.1312   -1.3542 H   0  0  0  0  0  0  0  0  0  0  0  0
   -0.1910   -3.0166    2.3427 H   0  0  0  0  0  0  0  0  0  0  0  0
   -1.2362   -1.9570    1.3898 H   0  0  0  0  0  0  0  0  0  0  0  0
    0.0028    0.0119    0.0044 H   0  0  0  0  0  0  0  0  0  0  0  0
    1.7664    0.0250    0.1778 H   0  0  0  0  0  0  0  0  0  0  0  0
   -1.3258   -1.2706    3.7550 H   0  0  0  0  0  0  0  0  0  0  0  0
    0.4354   -1.1615    3.8383 H   0  0  0  0  0  0  0  0  0  0  0  0
    1.6067    0.7116    2.5014 H   0  0  0  0  0  0  0  0  0  0  0  0
    0.5140    1.7623    1.5928 H   0  0  0  0  0  0  0  0  0  0  0  0
   -2.6139    2.6076    4.9776 H   0  0  0  0  0  0  0  0  0  0  0  0
   -1.3862    3.8906    4.8857 H   0  0  0  0  0  0  0  0  0  0  0  0
   -3.1185    4.2805    4.8151 H   0  0  0  0  0  0  0  0  0  0  0  0
   -1.9620    4.6469    1.2265 H   0  0  0  0  0  0  0  0  0  0  0  0
   -0.9715    5.0675    2.6125 H   0  0  0  0  0  0  0  0  0  0  0  0
   -2.6864    5.5347    2.5856 H   0  0  0  0  0  0  0  0  0  0  0  0
   -3.6687    2.8039    1.3715 H   0  0  0  0  0  0  0  0  0  0  0  0
   -3.9395    1.9359    2.8981 H   0  0  0  0  0  0  0  0  0  0  0  0
   -4.4833    3.6170    2.6965 H   0  0  0  0  0  0  0  0  0  0  0  0
    2.1925   -3.1101    2.8519 H   0  0  0  0  0  0  0  0  0  0  0  0
    3.6037   -4.0623    2.3898 H   0  0  0  0  0  0  0  0  0  0  0  0
    4.5454   -2.0018    2.9092 H   0  0  0  0  0  0  0  0  0  0  0  0
    3.5387   -1.1819    1.7396 H   0  0  0  0  0  0  0  0  0  0  0  0
  1  2  1  0  0  0  0
  1  3  2  0  0  0  0
  2  4  2  0  0  0  0
  3  5  1  0  0  0  0
  4  6  1  0  0  0  0
  5  6  2  0  0  0  0
  5 15  1  0  0  0  0
  6 17  1  0  0  0  0
  7 18  1  0  0  0  0
  7 20  2  0  0  0  0
  7 21  1  0  0  0  0
  8 10  1  0  0  0  0
  8 17  1  0  0  0  0
  9 11  1  0  0  0  0
  9 17  1  0  0  0  0
 10 18  1  0  0  0  0
 11 18  1  0  0  0  0
 12 16  1  0  0  0  0
 13 16  1  0  0  0  0
 14 16  1  0  0  0  0
 15 19  1  0  0  0  0
 16 21  1  0  0  0  0
  1 22  1  0  0  0  0
  2 23  1  0  0  0  0
  3 24  1  0  0  0  0
  4 25  1  0  0  0  0
  8 26  1  0  0  0  0
  8 27  1  0  0  0  0
  9 28  1  0  0  0  0
  9 29  1  0  0  0  0
 10 30  1  0  0  0  0
 10 31  1  0  0  0  0
 11 32  1  0  0  0  0
 11 33  1  0  0  0  0
 12 34  1  0  0  0  0
 12 35  1  0  0  0  0
 12 36  1  0  0  0  0
 13 37  1  0  0  0  0
 13 38  1  0  0  0  0
 13 39  1  0  0  0  0
 14 40  1  0  0  0  0
 14 41  1  0  0  0  0
 14 42  1  0  0  0  0
 15 43  1  0  0  0  0
 15 44  1  0  0  0  0
 19 45  1  0  0  0  0
 19 46  1  0  0  0  0
M  END
$$$$
frag.vs.249
  -OEChem-01121112263D

 26 27  0     0  0  0  0  0  0999 V2000
    2.0839    0.3075    0.4417 C   0  0  0  0  0  0  0  0  0  0  0  0
    0.7261    0.5990    0.5416 C   0  0  0  0  0  0  0  0  0  0  0  0
    3.0153    1.0844    1.1301 C   0  0  0  0  0  0  0  0  0  0  0  0
    0.2981    1.6540    1.3470 C   0  0  0  0  0  0  0  0  0  0  0  0
    2.5950    2.1611    1.9193 C   0  0  0  0  0  0  0  0  0  0  0  0
    1.2251    2.4215    2.0616 C   0  0  0  0  0  0  0  0  0  0  0  0
    2.5420    4.5921    3.8663 C   0  0  0  0  0  0  0  0  0  0  0  0
    3.3427    4.2762    2.6124 C   0  0  0  0  0  0  0  0  0  0  0  0
    1.3885    3.6225    4.0726 C   0  0  0  0  0  0  0  0  0  0  0  0
   -1.1689    1.9268    1.4454 C   0  0  0  0  0  0  0  0  0  0  0  0
   -1.7226    1.4792    2.6964 N   0  0  0  0  0  0  0  0  0  0  0  0
    3.6061    2.8770    2.5092 O   0  0  0  0  0  0  0  0  0  0  0  0
    0.6795    3.4000    2.8537 O   0  0  0  0  0  0  0  0  0  0  0  0
    2.4188   -0.5181   -0.1794 H   0  0  0  0  0  0  0  0  0  0  0  0
    0.0079   -0.0059   -0.0054 H   0  0  0  0  0  0  0  0  0  0  0  0
    4.0739    0.8571    1.0301 H   0  0  0  0  0  0  0  0  0  0  0  0
    3.1900    4.5527    4.7495 H   0  0  0  0  0  0  0  0  0  0  0  0
    2.1650    5.6183    3.7874 H   0  0  0  0  0  0  0  0  0  0  0  0
    2.8473    4.6536    1.7078 H   0  0  0  0  0  0  0  0  0  0  0  0
    4.3095    4.7892    2.6645 H   0  0  0  0  0  0  0  0  0  0  0  0
    1.7273    2.6746    4.5122 H   0  0  0  0  0  0  0  0  0  0  0  0
    0.6808    4.0531    4.7899 H   0  0  0  0  0  0  0  0  0  0  0  0
   -1.3748    3.0012    1.3557 H   0  0  0  0  0  0  0  0  0  0  0  0
   -1.7226    1.4263    0.6412 H   0  0  0  0  0  0  0  0  0  0  0  0
   -2.7005    1.2439    2.7432 H   0  0  0  0  0  0  0  0  0  0  0  0
   -1.1870    1.6006    3.5405 H   0  0  0  0  0  0  0  0  0  0  0  0
  1  2  1  0  0  0  0
  1  3  2  0  0  0  0
  2  4  2  0  0  0  0
  3  5  1  0  0  0  0
  4  6  1  0  0  0  0
  4 10  1  0  0  0  0
  5  6  2  0  0  0  0
  5 12  1  0  0  0  0
  6 13  1  0  0  0  0
  7  8  1  0  0  0  0
  7  9  1  0  0  0  0
  8 12  1  0  0  0  0
  9 13  1  0  0  0  0
 10 11  1  0  0  0  0
  1 14  1  0  0  0  0
  2 15  1  0  0  0  0
  3 16  1  0  0  0  0
  7 17  1  0  0  0  0
  7 18  1  0  0  0  0
  8 19  1  0  0  0  0
  8 20  1  0  0  0  0
  9 21  1  0  0  0  0
  9 22  1  0  0  0  0
 10 23  1  0  0  0  0
 10 24  1  0  0  0  0
 11 25  1  0  0  0  0
 11 26  1  0  0  0  0
M  END
$$$$
frag.vs.250
  -OEChem-01121112263D

 25 26  0     0  0  0  0  0  0999 V2000
    1.8856   -1.0366   -0.1124 C   0  0  0  0  0  0  0  0  0  0  0  0
    0.6761   -0.8311    0.5512 C   0  0  0  0  0  0  0  0  0  0  0  0
    3.0522   -1.2632    0.6180 C   0  0  0  0  0  0  0  0  0  0  0  0
    0.6331   -0.8521    1.9452 C   0  0  0  0  0  0  0  0  0  0  0  0
    3.0092   -1.2842    2.0120 C   0  0  0  0  0  0  0  0  0  0  0  0
    1.3729   -0.1270    5.0066 C   0  0  0  0  0  0  0  0  0  0  0  0
    1.7997   -1.0786    2.6757 C   0  0  0  0  0  0  0  0  0  0  0  0
    1.7549   -1.1012    4.1171 C   0  0  0  0  0  0  0  0  0  0  0  0
    1.5398   -0.7208    6.2721 C   0  0  0  0  0  0  0  0  0  0  0  0
    1.2814   -0.1304    7.5543 C   0  0  0  0  0  0  0  0  0  0  0  0
    2.5900   -3.4581    4.4031 C   0  0  0  0  0  0  0  0  0  0  0  0
    1.9925   -1.9752    6.1973 N   0  0  0  0  0  0  0  0  0  0  0  0
    2.1132   -2.1776    4.8742 N   0  0  0  0  0  0  0  0  0  0  0  0
    1.4383   -0.6803    8.6620 O   0  0  0  0  0  0  0  0  0  0  0  0
    0.8239    1.1571    7.4733 O   0  0  0  0  0  0  0  0  0  0  0  0
    1.9190   -1.0209   -1.1979 H   0  0  0  0  0  0  0  0  0  0  0  0
   -0.2321   -0.6545   -0.0178 H   0  0  0  0  0  0  0  0  0  0  0  0
    3.9939   -1.4243    0.1012 H   0  0  0  0  0  0  0  0  0  0  0  0
   -0.3179   -0.6929    2.4477 H   0  0  0  0  0  0  0  0  0  0  0  0
    3.9275   -1.4610    2.5670 H   0  0  0  0  0  0  0  0  0  0  0  0
    1.0239    0.8695    4.7740 H   0  0  0  0  0  0  0  0  0  0  0  0
    3.6794   -3.4060    4.3292 H   0  0  0  0  0  0  0  0  0  0  0  0
    2.2915   -4.2395    5.1076 H   0  0  0  0  0  0  0  0  0  0  0  0
    2.1491   -3.6704    3.4251 H   0  0  0  0  0  0  0  0  0  0  0  0
    0.6450    1.5701    8.3449 H   0  0  0  0  0  0  0  0  0  0  0  0
  1  2  1  0  0  0  0
  1  3  2  0  0  0  0
  2  4  2  0  0  0  0
  3  5  1  0  0  0  0
  4  7  1  0  0  0  0
  5  7  2  0  0  0  0
  6  8  2  0  0  0  0
  6  9  1  0  0  0  0
  7  8  1  0  0  0  0
  8 13  1  0  0  0  0
  9 10  1  0  0  0  0
  9 12  2  0  0  0  0
 10 14  2  0  0  0  0
 10 15  1  0  0  0  0
 11 13  1  0  0  0  0
 12 13  1  0  0  0  0
  1 16  1  0  0  0  0
  2 17  1  0  0  0  0
  3 18  1  0  0  0  0
  4 19  1  0  0  0  0
  5 20  1  0  0  0  0
  6 21  1  0  0  0  0
 11 22  1  0  0  0  0
 11 23  1  0  0  0  0
 11 24  1  0  0  0  0
 15 25  1  0  0  0  0
M  END
$$$$
frag.vs.251
  -OEChem-01121112263D

 25 26  0     0  0  0  0  0  0999 V2000
    1.8839   -1.0359   -0.1125 C   0  0  0  0  0  0  0  0  0  0  0  0
    2.1671   -2.2156    0.5758 C   0  0  0  0  0  0  0  0  0  0  0  0
    1.5586    0.1224    0.5933 C   0  0  0  0  0  0  0  0  0  0  0  0
    2.1250   -2.2370    1.9699 C   0  0  0  0  0  0  0  0  0  0  0  0
    1.5165    0.1011    1.9874 C   0  0  0  0  0  0  0  0  0  0  0  0
    1.4308   -2.2009    4.9264 C   0  0  0  0  0  0  0  0  0  0  0  0
    1.7997   -1.0786    2.6757 C   0  0  0  0  0  0  0  0  0  0  0  0
    1.7561   -1.1004    4.1109 C   0  0  0  0  0  0  0  0  0  0  0  0
    1.5301   -1.7192    6.2088 C   0  0  0  0  0  0  0  0  0  0  0  0
    1.3077   -2.4075    7.4406 C   0  0  0  0  0  0  0  0  0  0  0  0
    2.1259    0.5281    7.1617 C   0  0  0  0  0  0  0  0  0  0  0  0
    2.0406   -0.0023    4.8161 N   0  0  0  0  0  0  0  0  0  0  0  0
    1.8944   -0.4104    6.0882 N   0  0  0  0  0  0  0  0  0  0  0  0
    1.4109   -1.9245    8.5895 O   0  0  0  0  0  0  0  0  0  0  0  0
    0.9480   -3.7205    7.2755 O   0  0  0  0  0  0  0  0  0  0  0  0
    1.9177   -1.0188   -1.1979 H   0  0  0  0  0  0  0  0  0  0  0  0
    2.4216   -3.1173    0.0265 H   0  0  0  0  0  0  0  0  0  0  0  0
    1.3394    1.0411    0.0572 H   0  0  0  0  0  0  0  0  0  0  0  0
    2.3483   -3.1645    2.4920 H   0  0  0  0  0  0  0  0  0  0  0  0
    1.2613    1.0126    2.5229 H   0  0  0  0  0  0  0  0  0  0  0  0
    1.1618   -3.2046    4.6278 H   0  0  0  0  0  0  0  0  0  0  0  0
    3.1820    0.4708    7.4379 H   0  0  0  0  0  0  0  0  0  0  0  0
    1.8733    1.5371    6.8240 H   0  0  0  0  0  0  0  0  0  0  0  0
    1.4920    0.2665    8.0135 H   0  0  0  0  0  0  0  0  0  0  0  0
    0.7921   -4.2020    8.1159 H   0  0  0  0  0  0  0  0  0  0  0  0
  1  2  1  0  0  0  0
  1  3  2  0  0  0  0
  2  4  2  0  0  0  0
  3  5  1  0  0  0  0
  4  7  1  0  0  0  0
  5  7  2  0  0  0  0
  6  8  1  0  0  0  0
  6  9  2  0  0  0  0
  7  8  1  0  0  0  0
  8 12  2  0  0  0  0
  9 10  1  0  0  0  0
  9 13  1  0  0  0  0
 10 14  2  0  0  0  0
 10 15  1  0  0  0  0
 11 13  1  0  0  0  0
 12 13  1  0  0  0  0
  1 16  1  0  0  0  0
  2 17  1  0  0  0  0
  3 18  1  0  0  0  0
  4 19  1  0  0  0  0
  5 20  1  0  0  0  0
  6 21  1  0  0  0  0
 11 22  1  0  0  0  0
 11 23  1  0  0  0  0
 11 24  1  0  0  0  0
 15 25  1  0  0  0  0
M  END
$$$$
frag.vs.252
  -OEChem-01121112263D

 29 30  0     0  0  0  0  0  0999 V2000
    6.4573   -1.3461    7.1440 C   0  0  0  0  0  0  0  0  0  0  0  0
    6.6507   -2.7249    7.0597 C   0  0  0  0  0  0  0  0  0  0  0  0
    5.1742   -0.8320    7.3313 C   0  0  0  0  0  0  0  0  0  0  0  0
    5.5611   -3.5896    7.1627 C   0  0  0  0  0  0  0  0  0  0  0  0
    4.0846   -1.6967    7.4343 C   0  0  0  0  0  0  0  0  0  0  0  0
    4.2780   -3.0756    7.3500 C   0  0  0  0  0  0  0  0  0  0  0  0
    2.7068   -4.8907    6.4977 C   0  0  0  0  0  0  0  0  0  0  0  0
    3.1559   -3.9656    7.4558 C   0  0  0  0  0  0  0  0  0  0  0  0
    1.6188   -5.4730    7.0921 C   0  0  0  0  0  0  0  0  0  0  0  0
    0.6673   -6.5138    6.6810 C   0  0  0  0  0  0  0  0  0  0  0  0
    4.5319   -6.6805    3.7842 C   0  0  0  0  0  0  0  0  0  0  0  0
    3.2665   -5.1806    5.1664 C   0  0  0  0  0  0  0  0  0  0  0  0
    2.4040   -3.9735    8.5601 N   0  0  0  0  0  0  0  0  0  0  0  0
    4.0037   -6.4261    5.1211 N   0  0  0  0  0  0  0  0  0  0  0  0
    1.4279   -4.9340    8.3234 O   0  0  0  0  0  0  0  0  0  0  0  0
    7.3057   -0.6727    7.0649 H   0  0  0  0  0  0  0  0  0  0  0  0
    7.6498   -3.1254    6.9151 H   0  0  0  0  0  0  0  0  0  0  0  0
    5.0240    0.2415    7.3982 H   0  0  0  0  0  0  0  0  0  0  0  0
    5.7282   -4.6621    7.0949 H   0  0  0  0  0  0  0  0  0  0  0  0
    3.0906   -1.2802    7.5802 H   0  0  0  0  0  0  0  0  0  0  0  0
    1.0147   -7.5196    6.9785 H   0  0  0  0  0  0  0  0  0  0  0  0
   -0.3350   -6.3671    7.1252 H   0  0  0  0  0  0  0  0  0  0  0  0
    0.5090   -6.5307    5.5863 H   0  0  0  0  0  0  0  0  0  0  0  0
    3.7147   -6.7244    3.0595 H   0  0  0  0  0  0  0  0  0  0  0  0
    5.0704   -7.6319    3.7653 H   0  0  0  0  0  0  0  0  0  0  0  0
    5.2196   -5.8826    3.4914 H   0  0  0  0  0  0  0  0  0  0  0  0
    2.4799   -5.2506    4.3923 H   0  0  0  0  0  0  0  0  0  0  0  0
    3.9607   -4.3928    4.8204 H   0  0  0  0  0  0  0  0  0  0  0  0
    4.7831   -6.3891    5.7819 H   0  0  0  0  0  0  0  0  0  0  0  0
  1  2  1  0  0  0  0
  1  3  2  0  0  0  0
  2  4  2  0  0  0  0
  3  5  1  0  0  0  0
  4  6  1  0  0  0  0
  5  6  2  0  0  0  0
  6  8  1  0  0  0  0
  7  8  1  0  0  0  0
  7  9  2  0  0  0  0
  7 12  1  0  0  0  0
  8 13  2  0  0  0  0
  9 10  1  0  0  0  0
  9 15  1  0  0  0  0
 11 14  1  0  0  0  0
 12 14  1  0  0  0  0
 13 15  1  0  0  0  0
  1 16  1  0  0  0  0
  2 17  1  0  0  0  0
  3 18  1  0  0  0  0
  4 19  1  0  0  0  0
  5 20  1  0  0  0  0
 10 21  1  0  0  0  0
 10 22  1  0  0  0  0
 10 23  1  0  0  0  0
 11 24  1  0  0  0  0
 11 25  1  0  0  0  0
 11 26  1  0  0  0  0
 12 27  1  0  0  0  0
 12 28  1  0  0  0  0
 14 29  1  0  0  0  0
M  END
$$$$
frag.vs.253
  -OEChem-01121112263D

 21 22  0     0  0  0  0  0  0999 V2000
    1.8851   -1.0363   -0.1124 C   0  0  0  0  0  0  0  0  0  0  0  0
    0.8066   -0.4630    0.5610 C   0  0  0  0  0  0  0  0  0  0  0  0
    2.9210   -1.6309    0.6081 C   0  0  0  0  0  0  0  0  0  0  0  0
    0.7638   -0.4841    1.9551 C   0  0  0  0  0  0  0  0  0  0  0  0
    2.8783   -1.6520    2.0022 C   0  0  0  0  0  0  0  0  0  0  0  0
    0.8716   -0.6454    5.0595 C   0  0  0  0  0  0  0  0  0  0  0  0
    1.7997   -1.0786    2.6757 C   0  0  0  0  0  0  0  0  0  0  0  0
    1.7549   -1.1012    4.1171 C   0  0  0  0  0  0  0  0  0  0  0  0
    1.4671   -1.0095    6.2795 C   0  0  0  0  0  0  0  0  0  0  0  0
    0.9682   -0.7765    7.6039 C   0  0  0  0  0  0  0  0  0  0  0  0
    2.6307   -1.6428    6.1070 N   0  0  0  0  0  0  0  0  0  0  0  0
    1.5225   -1.1133    8.6691 O   0  0  0  0  0  0  0  0  0  0  0  0
    2.8089   -1.6984    4.7298 O   0  0  0  0  0  0  0  0  0  0  0  0
   -0.2316   -0.1174    7.6214 O   0  0  0  0  0  0  0  0  0  0  0  0
    1.9181   -1.0204   -1.1979 H   0  0  0  0  0  0  0  0  0  0  0  0
    0.0002    0.0001   -0.0003 H   0  0  0  0  0  0  0  0  0  0  0  0
    3.7604   -2.0783    0.0837 H   0  0  0  0  0  0  0  0  0  0  0  0
   -0.0851   -0.0353    2.4653 H   0  0  0  0  0  0  0  0  0  0  0  0
    3.6940   -2.1183    2.5495 H   0  0  0  0  0  0  0  0  0  0  0  0
   -0.0618   -0.1278    4.8899 H   0  0  0  0  0  0  0  0  0  0  0  0
   -0.5811    0.0477    8.5230 H   0  0  0  0  0  0  0  0  0  0  0  0
  1  2  1  0  0  0  0
  1  3  2  0  0  0  0
  2  4  2  0  0  0  0
  3  5  1  0  0  0  0
  4  7  1  0  0  0  0
  5  7  2  0  0  0  0
  6  8  2  0  0  0  0
  6  9  1  0  0  0  0
  7  8  1  0  0  0  0
  8 13  1  0  0  0  0
  9 10  1  0  0  0  0
  9 11  2  0  0  0  0
 10 12  2  0  0  0  0
 10 14  1  0  0  0  0
 11 13  1  0  0  0  0
  1 15  1  0  0  0  0
  2 16  1  0  0  0  0
  3 17  1  0  0  0  0
  4 18  1  0  0  0  0
  5 19  1  0  0  0  0
  6 20  1  0  0  0  0
 14 21  1  0  0  0  0
M  END
$$$$
frag.vs.254
  -OEChem-01121112263D

 23 24  0     0  0  0  0  0  0999 V2000
    1.8881   -1.0344   -0.1123 C   0  0  0  0  0  0  0  0  0  0  0  0
    2.4495   -2.1032    0.5863 C   0  0  0  0  0  0  0  0  0  0  0  0
    1.2825    0.0123    0.5830 C   0  0  0  0  0  0  0  0  0  0  0  0
    2.4053   -2.1253    1.9803 C   0  0  0  0  0  0  0  0  0  0  0  0
    1.2383   -0.0098    1.9770 C   0  0  0  0  0  0  0  0  0  0  0  0
    2.1958   -1.9690    5.0808 C   0  0  0  0  0  0  0  0  0  0  0  0
    1.7997   -1.0786    2.6757 C   0  0  0  0  0  0  0  0  0  0  0  0
    1.7549   -1.1012    4.1171 C   0  0  0  0  0  0  0  0  0  0  0  0
    1.8119   -1.3541    6.2850 C   0  0  0  0  0  0  0  0  0  0  0  0
    2.0285   -1.8443    7.6558 C   0  0  0  0  0  0  0  0  0  0  0  0
    1.1811   -0.1938    6.0836 N   0  0  0  0  0  0  0  0  0  0  0  0
    1.1359   -2.9255    8.0195 N   0  0  0  0  0  0  0  0  0  0  0  0
    1.1476   -0.0378    4.7031 O   0  0  0  0  0  0  0  0  0  0  0  0
    1.9231   -1.0169   -1.1977 H   0  0  0  0  0  0  0  0  0  0  0  0
    2.9207   -2.9182    0.0447 H   0  0  0  0  0  0  0  0  0  0  0  0
    0.8464    0.8451    0.0390 H   0  0  0  0  0  0  0  0  0  0  0  0
    2.8497   -2.9642    2.5106 H   0  0  0  0  0  0  0  0  0  0  0  0
    0.7618    0.8131    2.5043 H   0  0  0  0  0  0  0  0  0  0  0  0
    2.7168   -2.9042    4.9353 H   0  0  0  0  0  0  0  0  0  0  0  0
    3.0577   -2.2218    7.8044 H   0  0  0  0  0  0  0  0  0  0  0  0
    1.8863   -1.0528    8.4151 H   0  0  0  0  0  0  0  0  0  0  0  0
    0.9071   -3.0556    8.9869 H   0  0  0  0  0  0  0  0  0  0  0  0
    0.9338   -3.6322    7.3375 H   0  0  0  0  0  0  0  0  0  0  0  0
  1  2  1  0  0  0  0
  1  3  2  0  0  0  0
  2  4  2  0  0  0  0
  3  5  1  0  0  0  0
  4  7  1  0  0  0  0
  5  7  2  0  0  0  0
  6  8  2  0  0  0  0
  6  9  1  0  0  0  0
  7  8  1  0  0  0  0
  8 13  1  0  0  0  0
  9 10  1  0  0  0  0
  9 11  2  0  0  0  0
 10 12  1  0  0  0  0
 11 13  1  0  0  0  0
  1 14  1  0  0  0  0
  2 15  1  0  0  0  0
  3 16  1  0  0  0  0
  4 17  1  0  0  0  0
  5 18  1  0  0  0  0
  6 19  1  0  0  0  0
 10 20  1  0  0  0  0
 10 21  1  0  0  0  0
 12 22  1  0  0  0  0
 12 23  1  0  0  0  0
M  END
$$$$
frag.vs.255
  -OEChem-01121112263D

 26 27  0     0  0  0  0  0  0999 V2000
    5.8370   -8.9878    6.4558 C   0  0  0  0  0  0  0  0  0  0  0  0
    4.4609   -9.0890    6.6600 C   0  0  0  0  0  0  0  0  0  0  0  0
    6.5004   -7.7970    6.7519 C   0  0  0  0  0  0  0  0  0  0  0  0
    3.7481   -7.9993    7.1602 C   0  0  0  0  0  0  0  0  0  0  0  0
    5.7876   -6.7073    7.2521 C   0  0  0  0  0  0  0  0  0  0  0  0
    2.3602   -5.4511    8.2835 C   0  0  0  0  0  0  0  0  0  0  0  0
    4.4114   -6.8085    7.4563 C   0  0  0  0  0  0  0  0  0  0  0  0
    3.6744   -5.6822    7.9743 C   0  0  0  0  0  0  0  0  0  0  0  0
    2.3541   -4.1241    8.7467 C   0  0  0  0  0  0  0  0  0  0  0  0
   -0.7860   -2.1183    8.6554 C   0  0  0  0  0  0  0  0  0  0  0  0
    1.2015   -3.3402    9.2193 C   0  0  0  0  0  0  0  0  0  0  0  0
    3.5715   -3.5741    8.7263 N   0  0  0  0  0  0  0  0  0  0  0  0
    0.3479   -2.8811    8.1428 N   0  0  0  0  0  0  0  0  0  0  0  0
    4.4074   -4.5694    8.2343 O   0  0  0  0  0  0  0  0  0  0  0  0
    6.3921   -9.8365    6.0669 H   0  0  0  0  0  0  0  0  0  0  0  0
    3.9445  -10.0162    6.4292 H   0  0  0  0  0  0  0  0  0  0  0  0
    7.5721   -7.7186    6.5940 H   0  0  0  0  0  0  0  0  0  0  0  0
    2.6762   -8.0948    7.3163 H   0  0  0  0  0  0  0  0  0  0  0  0
    6.3190   -5.7857    7.4770 H   0  0  0  0  0  0  0  0  0  0  0  0
    1.5317   -6.1381    8.1894 H   0  0  0  0  0  0  0  0  0  0  0  0
   -1.3759   -2.7352    9.3383 H   0  0  0  0  0  0  0  0  0  0  0  0
   -1.4271   -1.7943    7.8311 H   0  0  0  0  0  0  0  0  0  0  0  0
   -0.4344   -1.2344    9.1942 H   0  0  0  0  0  0  0  0  0  0  0  0
    0.5577   -3.9207    9.9064 H   0  0  0  0  0  0  0  0  0  0  0  0
    1.5062   -2.4386    9.7828 H   0  0  0  0  0  0  0  0  0  0  0  0
    0.8852   -2.2870    7.5076 H   0  0  0  0  0  0  0  0  0  0  0  0
  1  2  1  0  0  0  0
  1  3  2  0  0  0  0
  2  4  2  0  0  0  0
  3  5  1  0  0  0  0
  4  7  1  0  0  0  0
  5  7  2  0  0  0  0
  6  8  2  0  0  0  0
  6  9  1  0  0  0  0
  7  8  1  0  0  0  0
  8 14  1  0  0  0  0
  9 11  1  0  0  0  0
  9 12  2  0  0  0  0
 10 13  1  0  0  0  0
 11 13  1  0  0  0  0
 12 14  1  0  0  0  0
  1 15  1  0  0  0  0
  2 16  1  0  0  0  0
  3 17  1  0  0  0  0
  4 18  1  0  0  0  0
  5 19  1  0  0  0  0
  6 20  1  0  0  0  0
 10 21  1  0  0  0  0
 10 22  1  0  0  0  0
 10 23  1  0  0  0  0
 11 24  1  0  0  0  0
 11 25  1  0  0  0  0
 13 26  1  0  0  0  0
M  END
$$$$
frag.vs.256
  -OEChem-01121112263D

 22 23  0     0  0  0  0  0  0999 V2000
    1.8851   -1.0363   -0.1124 C   0  0  0  0  0  0  0  0  0  0  0  0
    0.8066   -0.4630    0.5610 C   0  0  0  0  0  0  0  0  0  0  0  0
    2.9210   -1.6309    0.6081 C   0  0  0  0  0  0  0  0  0  0  0  0
    0.7638   -0.4841    1.9551 C   0  0  0  0  0  0  0  0  0  0  0  0
    2.8783   -1.6520    2.0022 C   0  0  0  0  0  0  0  0  0  0  0  0
    0.8724   -0.6458    5.0604 C   0  0  0  0  0  0  0  0  0  0  0  0
    1.7997   -1.0786    2.6757 C   0  0  0  0  0  0  0  0  0  0  0  0
    1.7549   -1.1012    4.1171 C   0  0  0  0  0  0  0  0  0  0  0  0
    1.4658   -1.0163    6.2796 C   0  0  0  0  0  0  0  0  0  0  0  0
    0.9541   -0.7793    7.6392 C   0  0  0  0  0  0  0  0  0  0  0  0
    2.6274   -1.6527    6.1057 N   0  0  0  0  0  0  0  0  0  0  0  0
    2.8065   -1.7040    4.7285 O   0  0  0  0  0  0  0  0  0  0  0  0
    0.4318   -1.9916    8.1864 O   0  0  0  0  0  0  0  0  0  0  0  0
    1.9181   -1.0204   -1.1979 H   0  0  0  0  0  0  0  0  0  0  0  0
    0.0002    0.0001   -0.0003 H   0  0  0  0  0  0  0  0  0  0  0  0
    3.7604   -2.0783    0.0837 H   0  0  0  0  0  0  0  0  0  0  0  0
   -0.0851   -0.0353    2.4653 H   0  0  0  0  0  0  0  0  0  0  0  0
    3.6940   -2.1183    2.5495 H   0  0  0  0  0  0  0  0  0  0  0  0
   -0.0595   -0.1256    4.8926 H   0  0  0  0  0  0  0  0  0  0  0  0
    1.7389   -0.4104    8.3254 H   0  0  0  0  0  0  0  0  0  0  0  0
    0.1460   -0.0246    7.6543 H   0  0  0  0  0  0  0  0  0  0  0  0
    0.1126   -1.7742    9.0748 H   0  0  0  0  0  0  0  0  0  0  0  0
  1  2  1  0  0  0  0
  1  3  2  0  0  0  0
  2  4  2  0  0  0  0
  3  5  1  0  0  0  0
  4  7  1  0  0  0  0
  5  7  2  0  0  0  0
  6  8  2  0  0  0  0
  6  9  1  0  0  0  0
  7  8  1  0  0  0  0
  8 12  1  0  0  0  0
  9 10  1  0  0  0  0
  9 11  2  0  0  0  0
 10 13  1  0  0  0  0
 11 12  1  0  0  0  0
  1 14  1  0  0  0  0
  2 15  1  0  0  0  0
  3 16  1  0  0  0  0
  4 17  1  0  0  0  0
  5 18  1  0  0  0  0
  6 19  1  0  0  0  0
 10 20  1  0  0  0  0
 10 21  1  0  0  0  0
 13 22  1  0  0  0  0
M  END
$$$$
frag.vs.257
  -OEChem-01121112263D

 25 26  0     0  0  0  0  0  0999 V2000
    1.8851   -1.0363   -0.1124 C   0  0  0  0  0  0  0  0  0  0  0  0
    0.8066   -0.4630    0.5610 C   0  0  0  0  0  0  0  0  0  0  0  0
    2.9210   -1.6309    0.6081 C   0  0  0  0  0  0  0  0  0  0  0  0
   -1.0330    1.1889    2.0963 C   0  0  0  0  0  0  0  0  0  0  0  0
   -0.7576   -0.3955    3.8847 C   0  0  0  0  0  0  0  0  0  0  0  0
    1.7997   -1.0786    2.6757 C   0  0  0  0  0  0  0  0  0  0  0  0
   -2.0984    1.7212    2.8043 C   0  0  0  0  0  0  0  0  0  0  0  0
   -1.8352    0.2079    4.5127 C   0  0  0  0  0  0  0  0  0  0  0  0
    0.7638   -0.4841    1.9551 C   0  0  0  0  0  0  0  0  0  0  0  0
   -0.3551    0.1104    2.6537 C   0  0  0  0  0  0  0  0  0  0  0  0
    2.8783   -1.6520    2.0022 C   0  0  0  0  0  0  0  0  0  0  0  0
    3.9864   -2.2878    2.7719 C   0  0  0  0  0  0  0  0  0  0  0  0
   -2.5185    1.2569    4.0025 N   0  0  0  0  0  0  0  0  0  0  0  0
    4.8033   -1.2755    3.3472 O   0  0  0  0  0  0  0  0  0  0  0  0
    1.9184   -1.0194   -1.1980 H   0  0  0  0  0  0  0  0  0  0  0  0
    0.0065   -0.0034   -0.0149 H   0  0  0  0  0  0  0  0  0  0  0  0
    3.7576   -2.0754    0.0753 H   0  0  0  0  0  0  0  0  0  0  0  0
   -0.7492    1.6105    1.1374 H   0  0  0  0  0  0  0  0  0  0  0  0
   -0.2524   -1.2355    4.3506 H   0  0  0  0  0  0  0  0  0  0  0  0
    1.7727   -1.0982    3.7632 H   0  0  0  0  0  0  0  0  0  0  0  0
   -2.6612    2.5620    2.4119 H   0  0  0  0  0  0  0  0  0  0  0  0
   -2.1876   -0.1485    5.4749 H   0  0  0  0  0  0  0  0  0  0  0  0
    3.5996   -2.9266    3.5776 H   0  0  0  0  0  0  0  0  0  0  0  0
    4.6096   -2.9180    2.1229 H   0  0  0  0  0  0  0  0  0  0  0  0
    5.5078   -1.7298    3.8363 H   0  0  0  0  0  0  0  0  0  0  0  0
  1  2  2  0  0  0  0
  1  3  1  0  0  0  0
  2  9  1  0  0  0  0
  3 11  2  0  0  0  0
  4  7  2  0  0  0  0
  4 10  1  0  0  0  0
  5  8  1  0  0  0  0
  5 10  2  0  0  0  0
  6  9  2  0  0  0  0
  6 11  1  0  0  0  0
  7 13  1  0  0  0  0
  8 13  2  0  0  0  0
  9 10  1  0  0  0  0
 11 12  1  0  0  0  0
 12 14  1  0  0  0  0
  1 15  1  0  0  0  0
  2 16  1  0  0  0  0
  3 17  1  0  0  0  0
  4 18  1  0  0  0  0
  5 19  1  0  0  0  0
  6 20  1  0  0  0  0
  7 21  1  0  0  0  0
  8 22  1  0  0  0  0
 12 23  1  0  0  0  0
 12 24  1  0  0  0  0
 14 25  1  0  0  0  0
M  END
$$$$
frag.vs.258
  -OEChem-01121112263D

 32 33  0     0  0  0  0  0  0999 V2000
    0.1548   -3.5441    1.9735 C   0  0  0  0  0  0  0  0  0  0  0  0
    0.8273   -2.8780    0.9490 C   0  0  0  0  0  0  0  0  0  0  0  0
   -1.1078   -4.0891    1.7400 C   0  0  0  0  0  0  0  0  0  0  0  0
   -1.0256   -3.3015   -0.5425 C   0  0  0  0  0  0  0  0  0  0  0  0
    0.2370   -2.7566   -0.3090 C   0  0  0  0  0  0  0  0  0  0  0  0
   -1.6980   -3.9677    0.4820 C   0  0  0  0  0  0  0  0  0  0  0  0
    0.6677   -0.5045   -3.2485 C   0  0  0  0  0  0  0  0  0  0  0  0
    0.3195    0.2456   -0.9869 C   0  0  0  0  0  0  0  0  0  0  0  0
   -0.1268    0.7019   -3.7407 C   0  0  0  0  0  0  0  0  0  0  0  0
   -0.4677    1.4336   -1.5324 C   0  0  0  0  0  0  0  0  0  0  0  0
    0.9621   -2.0406   -1.4116 C   0  0  0  0  0  0  0  0  0  0  0  0
   -3.0485   -4.5499    0.2326 C   0  0  0  0  0  0  0  0  0  0  0  0
    0.2058   -0.8932   -1.9086 N   0  0  0  0  0  0  0  0  0  0  0  0
    0.0096    1.7929   -2.8294 O   0  0  0  0  0  0  0  0  0  0  0  0
   -4.0130   -3.5054    0.1931 O   0  0  0  0  0  0  0  0  0  0  0  0
    0.6146   -3.6387    2.9531 H   0  0  0  0  0  0  0  0  0  0  0  0
    1.8110   -2.4570    1.1401 H   0  0  0  0  0  0  0  0  0  0  0  0
   -1.6247   -4.6058    2.5443 H   0  0  0  0  0  0  0  0  0  0  0  0
   -1.4859   -3.2080   -1.5233 H   0  0  0  0  0  0  0  0  0  0  0  0
    0.5306   -1.3327   -3.9530 H   0  0  0  0  0  0  0  0  0  0  0  0
    1.7358   -0.2521   -3.2236 H   0  0  0  0  0  0  0  0  0  0  0  0
    1.3725    0.5312   -0.8637 H   0  0  0  0  0  0  0  0  0  0  0  0
   -0.0775   -0.0223   -0.0011 H   0  0  0  0  0  0  0  0  0  0  0  0
    0.2572    1.0299   -4.7119 H   0  0  0  0  0  0  0  0  0  0  0  0
   -1.1895    0.4619   -3.8681 H   0  0  0  0  0  0  0  0  0  0  0  0
   -1.5419    1.2179   -1.5841 H   0  0  0  0  0  0  0  0  0  0  0  0
   -0.3354    2.3007   -0.8774 H   0  0  0  0  0  0  0  0  0  0  0  0
    1.9348   -1.6776   -1.0620 H   0  0  0  0  0  0  0  0  0  0  0  0
    1.1498   -2.7099   -2.2578 H   0  0  0  0  0  0  0  0  0  0  0  0
   -3.0805   -5.0935   -0.7215 H   0  0  0  0  0  0  0  0  0  0  0  0
   -3.3274   -5.2583    1.0245 H   0  0  0  0  0  0  0  0  0  0  0  0
   -4.8727   -3.9253    0.0297 H   0  0  0  0  0  0  0  0  0  0  0  0
  1  2  1  0  0  0  0
  1  3  2  0  0  0  0
  2  5  2  0  0  0  0
  3  6  1  0  0  0  0
  4  5  1  0  0  0  0
  4  6  2  0  0  0  0
  5 11  1  0  0  0  0
  6 12  1  0  0  0  0
  7  9  1  0  0  0  0
  7 13  1  0  0  0  0
  8 10  1  0  0  0  0
  8 13  1  0  0  0  0
  9 14  1  0  0  0  0
 10 14  1  0  0  0  0
 11 13  1  0  0  0  0
 12 15  1  0  0  0  0
  1 16  1  0  0  0  0
  2 17  1  0  0  0  0
  3 18  1  0  0  0  0
  4 19  1  0  0  0  0
  7 20  1  0  0  0  0
  7 21  1  0  0  0  0
  8 22  1  0  0  0  0
  8 23  1  0  0  0  0
  9 24  1  0  0  0  0
  9 25  1  0  0  0  0
 10 26  1  0  0  0  0
 10 27  1  0  0  0  0
 11 28  1  0  0  0  0
 11 29  1  0  0  0  0
 12 30  1  0  0  0  0
 12 31  1  0  0  0  0
 15 32  1  0  0  0  0
M  END
$$$$
frag.vs.259
  -OEChem-01121112263D

 21 22  0     0  0  0  0  0  0999 V2000
    1.8851   -1.0363   -0.1124 C   0  0  0  0  0  0  0  0  0  0  0  0
    0.8066   -0.4630    0.5610 C   0  0  0  0  0  0  0  0  0  0  0  0
    5.3268   -3.8110    3.8151 C   0  0  0  0  0  0  0  0  0  0  0  0
    2.9210   -1.6309    0.6081 C   0  0  0  0  0  0  0  0  0  0  0  0
    0.7638   -0.4841    1.9551 C   0  0  0  0  0  0  0  0  0  0  0  0
    4.1020   -3.5873    3.1222 C   0  0  0  0  0  0  0  0  0  0  0  0
    6.0809   -2.6628    3.9170 C   0  0  0  0  0  0  0  0  0  0  0  0
    2.8783   -1.6520    2.0022 C   0  0  0  0  0  0  0  0  0  0  0  0
    1.7997   -1.0786    2.6757 C   0  0  0  0  0  0  0  0  0  0  0  0
    3.9666   -2.2763    2.7210 C   0  0  0  0  0  0  0  0  0  0  0  0
    1.7299   -1.0851    4.0878 N   0  0  0  0  0  0  0  0  0  0  0  0
    5.3125   -1.3219    3.1793 S   0  0  0  0  0  0  0  0  0  0  0  0
    1.9182   -1.0196   -1.1980 H   0  0  0  0  0  0  0  0  0  0  0  0
   -0.0005   -0.0011   -0.0000 H   0  0  0  0  0  0  0  0  0  0  0  0
    5.6389   -4.7652    4.2189 H   0  0  0  0  0  0  0  0  0  0  0  0
    3.7541   -2.0735    0.0670 H   0  0  0  0  0  0  0  0  0  0  0  0
   -0.0819   -0.0339    2.4687 H   0  0  0  0  0  0  0  0  0  0  0  0
    3.3619   -4.3551    2.9328 H   0  0  0  0  0  0  0  0  0  0  0  0
    7.0459   -2.5470    4.3898 H   0  0  0  0  0  0  0  0  0  0  0  0
    0.9670   -0.6240    4.5372 H   0  0  0  0  0  0  0  0  0  0  0  0
    2.4911   -1.4673    4.6084 H   0  0  0  0  0  0  0  0  0  0  0  0
  1  2  1  0  0  0  0
  1  4  2  0  0  0  0
  2  5  2  0  0  0  0
  3  6  1  0  0  0  0
  3  7  2  0  0  0  0
  4  8  1  0  0  0  0
  5  9  1  0  0  0  0
  6 10  2  0  0  0  0
  7 12  1  0  0  0  0
  8  9  2  0  0  0  0
  8 10  1  0  0  0  0
  9 11  1  0  0  0  0
 10 12  1  0  0  0  0
  1 13  1  0  0  0  0
  2 14  1  0  0  0  0
  3 15  1  0  0  0  0
  4 16  1  0  0  0  0
  5 17  1  0  0  0  0
  6 18  1  0  0  0  0
  7 19  1  0  0  0  0
 11 20  1  0  0  0  0
 11 21  1  0  0  0  0
M  END
$$$$
frag.vs.260_0
  -OEChem-01121112263D

 24 25  0     1  0  0  0  0  0999 V2000
    0.0399   -2.1452   -0.1756 C   0  0  0  0  0  0  0  0  0  0  0  0
    0.6193   -0.8921    0.0116 C   0  0  0  0  0  0  0  0  0  0  0  0
    0.8361   -3.2910   -0.1660 C   0  0  0  0  0  0  0  0  0  0  0  0
    1.9940   -0.7836    0.2166 C   0  0  0  0  0  0  0  0  0  0  0  0
    2.2203   -3.1924    0.0280 C   0  0  0  0  0  0  0  0  0  0  0  0
    2.7913   -1.9309    0.2393 C   0  0  0  0  0  0  0  0  0  0  0  0
    3.0647   -4.4354    0.0355 C   0  0  0  0  0  0  0  0  0  0  0  0
    4.8722   -2.9080    0.7856 C   0  0  0  0  0  0  0  0  0  0  0  0
    4.5440   -4.0822   -0.1354 C   0  0  1  0  0  0  0  0  0  0  0  0
    5.4334   -5.2858    0.1548 C   0  0  0  0  0  0  0  0  0  0  0  0
    4.1326   -1.7313    0.4408 O   0  0  0  0  0  0  0  0  0  0  0  0
    5.0903   -6.3276   -0.7411 O   0  0  0  0  0  0  0  0  0  0  0  0
   -1.0315   -2.2304   -0.3315 H   0  0  0  0  0  0  0  0  0  0  0  0
   -0.0001   -0.0001   -0.0001 H   0  0  0  0  0  0  0  0  0  0  0  0
    0.3712   -4.2622   -0.3162 H   0  0  0  0  0  0  0  0  0  0  0  0
    2.4369    0.1978    0.3644 H   0  0  0  0  0  0  0  0  0  0  0  0
    2.9013   -4.9564    0.9874 H   0  0  0  0  0  0  0  0  0  0  0  0
    2.7551   -5.1082   -0.7734 H   0  0  0  0  0  0  0  0  0  0  0  0
    4.6823   -3.1503    1.8393 H   0  0  0  0  0  0  0  0  0  0  0  0
    5.9339   -2.6505    0.7009 H   0  0  0  0  0  0  0  0  0  0  0  0
    4.7060   -3.7639   -1.1745 H   0  0  0  0  0  0  0  0  0  0  0  0
    5.2779   -5.6264    1.1789 H   0  0  0  0  0  0  0  0  0  0  0  0
    6.4810   -5.0190    0.0119 H   0  0  0  0  0  0  0  0  0  0  0  0
    5.6693   -7.0816   -0.5368 H   0  0  0  0  0  0  0  0  0  0  0  0
  1  2  1  0  0  0  0
  1  3  2  0  0  0  0
  2  4  2  0  0  0  0
  3  5  1  0  0  0  0
  4  6  1  0  0  0  0
  5  6  2  0  0  0  0
  5  7  1  0  0  0  0
  6 11  1  0  0  0  0
  7  9  1  0  0  0  0
  8  9  1  0  0  0  0
  8 11  1  0  0  0  0
  9 10  1  0  0  0  0
 10 12  1  0  0  0  0
  1 13  1  0  0  0  0
  2 14  1  0  0  0  0
  3 15  1  0  0  0  0
  4 16  1  0  0  0  0
  7 17  1  0  0  0  0
  7 18  1  0  0  0  0
  8 19  1  0  0  0  0
  8 20  1  0  0  0  0
  9 21  1  0  0  0  0
 10 22  1  0  0  0  0
 10 23  1  0  0  0  0
 12 24  1  0  0  0  0
M  END
$$$$
frag.vs.260_1
  -OEChem-01121112263D

 24 25  0     1  0  0  0  0  0999 V2000
    1.6264   -0.1663   -1.4005 C   0  0  0  0  0  0  0  0  0  0  0  0
    0.3347   -0.4197   -0.9441 C   0  0  0  0  0  0  0  0  0  0  0  0
    2.0547   -0.7005   -2.6162 C   0  0  0  0  0  0  0  0  0  0  0  0
   -0.5276   -1.2141   -1.6985 C   0  0  0  0  0  0  0  0  0  0  0  0
    1.1926   -1.4910   -3.3878 C   0  0  0  0  0  0  0  0  0  0  0  0
   -0.0963   -1.7607   -2.9100 C   0  0  0  0  0  0  0  0  0  0  0  0
    1.6679   -2.0586   -4.6955 C   0  0  0  0  0  0  0  0  0  0  0  0
   -0.4629   -3.3310   -4.6372 C   0  0  0  0  0  0  0  0  0  0  0  0
    0.4826   -2.5369   -5.5373 C   0  0  2  0  0  0  0  0  0  0  0  0
    0.9525   -3.3679   -6.7258 C   0  0  0  0  0  0  0  0  0  0  0  0
   -1.0108   -2.5240   -3.5887 O   0  0  0  0  0  0  0  0  0  0  0  0
    1.7902   -2.5636   -7.5365 O   0  0  0  0  0  0  0  0  0  0  0  0
    2.2997    0.4494   -0.8112 H   0  0  0  0  0  0  0  0  0  0  0  0
    0.0002   -0.0002    0.0001 H   0  0  0  0  0  0  0  0  0  0  0  0
    3.0642   -0.4922   -2.9619 H   0  0  0  0  0  0  0  0  0  0  0  0
   -1.5326   -1.4087   -1.3334 H   0  0  0  0  0  0  0  0  0  0  0  0
    2.2297   -1.3009   -5.2550 H   0  0  0  0  0  0  0  0  0  0  0  0
    2.3486   -2.8922   -4.4813 H   0  0  0  0  0  0  0  0  0  0  0  0
   -1.3096   -3.7072   -5.2221 H   0  0  0  0  0  0  0  0  0  0  0  0
    0.0339   -4.2025   -4.1914 H   0  0  0  0  0  0  0  0  0  0  0  0
   -0.0545   -1.6545   -5.9118 H   0  0  0  0  0  0  0  0  0  0  0  0
    0.0948   -3.6987   -7.3122 H   0  0  0  0  0  0  0  0  0  0  0  0
    1.5146   -4.2345   -6.3765 H   0  0  0  0  0  0  0  0  0  0  0  0
    2.0761   -3.1140   -8.2853 H   0  0  0  0  0  0  0  0  0  0  0  0
  1  2  1  0  0  0  0
  1  3  2  0  0  0  0
  2  4  2  0  0  0  0
  3  5  1  0  0  0  0
  4  6  1  0  0  0  0
  5  6  2  0  0  0  0
  5  7  1  0  0  0  0
  6 11  1  0  0  0  0
  7  9  1  0  0  0  0
  8  9  1  0  0  0  0
  8 11  1  0  0  0  0
  9 10  1  0  0  0  0
 10 12  1  0  0  0  0
  1 13  1  0  0  0  0
  2 14  1  0  0  0  0
  3 15  1  0  0  0  0
  4 16  1  0  0  0  0
  7 17  1  0  0  0  0
  7 18  1  0  0  0  0
  8 19  1  0  0  0  0
  8 20  1  0  0  0  0
  9 21  1  0  0  0  0
 10 22  1  0  0  0  0
 10 23  1  0  0  0  0
 12 24  1  0  0  0  0
M  END
$$$$
frag.vs.261_0
  -OEChem-01121112263D

 22 23  0     1  0  0  0  0  0999 V2000
    1.0325   -1.8018    0.5919 C   0  0  0  0  0  0  0  0  0  0  0  0
    0.8354   -0.6633   -0.2073 C   0  0  0  0  0  0  0  0  0  0  0  0
    2.1037   -2.6656    0.3491 C   0  0  0  0  0  0  0  0  0  0  0  0
    1.7050   -0.3758   -1.2609 C   0  0  0  0  0  0  0  0  0  0  0  0
    2.9516   -2.3743   -0.7037 C   0  0  0  0  0  0  0  0  0  0  0  0
    2.7492   -1.2506   -1.4900 C   0  0  0  0  0  0  0  0  0  0  0  0
    4.1802   -3.0711   -1.1448 C   0  0  0  0  0  0  0  0  0  0  0  0
    4.3849   -2.3727   -2.4982 C   0  0  2  0  0  0  0  0  0  0  0  0
    5.8519   -2.1270   -2.8115 C   0  0  0  0  0  0  0  0  0  0  0  0
    6.5589   -3.3656   -2.8459 N   0  0  0  0  0  0  0  0  0  0  0  0
    3.6882   -1.0988   -2.4777 O   0  0  0  0  0  0  0  0  0  0  0  0
    0.3490   -2.0072    1.4114 H   0  0  0  0  0  0  0  0  0  0  0  0
    0.0008    0.0006    0.0006 H   0  0  0  0  0  0  0  0  0  0  0  0
    2.2643   -3.5358    0.9763 H   0  0  0  0  0  0  0  0  0  0  0  0
    1.5590    0.5045   -1.8765 H   0  0  0  0  0  0  0  0  0  0  0  0
    4.9982   -2.8713   -0.4448 H   0  0  0  0  0  0  0  0  0  0  0  0
    4.0481   -4.1499   -1.2648 H   0  0  0  0  0  0  0  0  0  0  0  0
    3.9376   -2.9710   -3.3039 H   0  0  0  0  0  0  0  0  0  0  0  0
    6.2785   -1.4971   -2.0390 H   0  0  0  0  0  0  0  0  0  0  0  0
    5.9364   -1.6447   -3.7786 H   0  0  0  0  0  0  0  0  0  0  0  0
    6.3096   -4.1050   -2.1995 H   0  0  0  0  0  0  0  0  0  0  0  0
    7.4274   -3.4345   -3.3634 H   0  0  0  0  0  0  0  0  0  0  0  0
  1  2  1  0  0  0  0
  1  3  2  0  0  0  0
  2  4  2  0  0  0  0
  3  5  1  0  0  0  0
  4  6  1  0  0  0  0
  5  6  2  0  0  0  0
  5  7  1  0  0  0  0
  6 11  1  0  0  0  0
  7  8  1  0  0  0  0
  8  9  1  0  0  0  0
  8 11  1  0  0  0  0
  9 10  1  0  0  0  0
  1 12  1  0  0  0  0
  2 13  1  0  0  0  0
  3 14  1  0  0  0  0
  4 15  1  0  0  0  0
  7 16  1  0  0  0  0
  7 17  1  0  0  0  0
  8 18  1  0  0  0  0
  9 19  1  0  0  0  0
  9 20  1  0  0  0  0
 10 21  1  0  0  0  0
 10 22  1  0  0  0  0
M  END
$$$$
frag.vs.261_1
  -OEChem-01121112263D

 22 23  0     1  0  0  0  0  0999 V2000
    1.6817   -1.3272   -0.2703 C   0  0  0  0  0  0  0  0  0  0  0  0
    0.9256   -0.3726    0.4302 C   0  0  0  0  0  0  0  0  0  0  0  0
    2.8791   -1.8156    0.2593 C   0  0  0  0  0  0  0  0  0  0  0  0
    1.3556    0.1035    1.6702 C   0  0  0  0  0  0  0  0  0  0  0  0
    3.2881   -1.3430    1.4928 C   0  0  0  0  0  0  0  0  0  0  0  0
    2.5353   -0.4032    2.1797 C   0  0  0  0  0  0  0  0  0  0  0  0
    4.5236   -1.6369    2.2522 C   0  0  0  0  0  0  0  0  0  0  0  0
    4.1369   -1.0090    3.6005 C   0  0  1  0  0  0  0  0  0  0  0  0
    5.3111   -0.3285    4.2849 C   0  0  0  0  0  0  0  0  0  0  0  0
    6.3453   -1.2772    4.5406 N   0  0  0  0  0  0  0  0  0  0  0  0
    3.0897   -0.0283    3.3766 O   0  0  0  0  0  0  0  0  0  0  0  0
    1.3348   -1.6825   -1.2369 H   0  0  0  0  0  0  0  0  0  0  0  0
    0.0005    0.0008   -0.0004 H   0  0  0  0  0  0  0  0  0  0  0  0
    3.4702   -2.5408   -0.2894 H   0  0  0  0  0  0  0  0  0  0  0  0
    0.7773    0.8438    2.2113 H   0  0  0  0  0  0  0  0  0  0  0  0
    4.7286   -2.7065    2.3508 H   0  0  0  0  0  0  0  0  0  0  0  0
    5.3790   -1.1345    1.7886 H   0  0  0  0  0  0  0  0  0  0  0  0
    3.7221   -1.7755    4.2695 H   0  0  0  0  0  0  0  0  0  0  0  0
    4.9767    0.0930    5.2263 H   0  0  0  0  0  0  0  0  0  0  0  0
    5.6988    0.4522    3.6406 H   0  0  0  0  0  0  0  0  0  0  0  0
    6.1040   -2.2258    4.8024 H   0  0  0  0  0  0  0  0  0  0  0  0
    7.3002   -0.9598    4.6605 H   0  0  0  0  0  0  0  0  0  0  0  0
  1  2  1  0  0  0  0
  1  3  2  0  0  0  0
  2  4  2  0  0  0  0
  3  5  1  0  0  0  0
  4  6  1  0  0  0  0
  5  6  2  0  0  0  0
  5  7  1  0  0  0  0
  6 11  1  0  0  0  0
  7  8  1  0  0  0  0
  8  9  1  0  0  0  0
  8 11  1  0  0  0  0
  9 10  1  0  0  0  0
  1 12  1  0  0  0  0
  2 13  1  0  0  0  0
  3 14  1  0  0  0  0
  4 15  1  0  0  0  0
  7 16  1  0  0  0  0
  7 17  1  0  0  0  0
  8 18  1  0  0  0  0
  9 19  1  0  0  0  0
  9 20  1  0  0  0  0
 10 21  1  0  0  0  0
 10 22  1  0  0  0  0
M  END
$$$$
frag.vs.262_0
  -OEChem-01121112263D

 23 24  0     1  0  0  0  0  0999 V2000
    2.0742    0.3880   -0.4274 C   0  0  0  0  0  0  0  0  0  0  0  0
    0.7073    0.6472   -0.5102 C   0  0  0  0  0  0  0  0  0  0  0  0
    2.9874    1.2222   -1.0765 C   0  0  0  0  0  0  0  0  0  0  0  0
    0.2485    1.7328   -1.2530 C   0  0  0  0  0  0  0  0  0  0  0  0
    2.5449    2.3285   -1.8110 C   0  0  0  0  0  0  0  0  0  0  0  0
    1.1628    2.5545   -1.9145 C   0  0  0  0  0  0  0  0  0  0  0  0
    2.9249    4.3952   -3.0015 C   0  0  0  0  0  0  0  0  0  0  0  0
    1.5599    4.1093   -3.6271 C   0  0  2  0  0  0  0  0  0  0  0  0
    0.9493    5.3783   -4.2077 C   0  0  0  0  0  0  0  0  0  0  0  0
    3.4494    3.1645   -2.4514 N   0  0  0  0  0  0  0  0  0  0  0  0
    0.6441    3.6015   -2.6405 O   0  0  0  0  0  0  0  0  0  0  0  0
   -0.3048    5.0558   -4.7822 O   0  0  0  0  0  0  0  0  0  0  0  0
    2.4311   -0.4623    0.1465 H   0  0  0  0  0  0  0  0  0  0  0  0
   -0.0000   -0.0002   -0.0002 H   0  0  0  0  0  0  0  0  0  0  0  0
    4.0503    1.0072   -0.9942 H   0  0  0  0  0  0  0  0  0  0  0  0
   -0.8184    1.9257   -1.3220 H   0  0  0  0  0  0  0  0  0  0  0  0
    3.6227    4.7905   -3.7470 H   0  0  0  0  0  0  0  0  0  0  0  0
    2.8346    5.1336   -2.1953 H   0  0  0  0  0  0  0  0  0  0  0  0
    1.6484    3.3641   -4.4298 H   0  0  0  0  0  0  0  0  0  0  0  0
    1.6023    5.7889   -4.9790 H   0  0  0  0  0  0  0  0  0  0  0  0
    0.8033    6.1182   -3.4197 H   0  0  0  0  0  0  0  0  0  0  0  0
    4.4434    3.0563   -2.2923 H   0  0  0  0  0  0  0  0  0  0  0  0
   -0.6725    5.8797   -5.1444 H   0  0  0  0  0  0  0  0  0  0  0  0
  1  2  1  0  0  0  0
  1  3  2  0  0  0  0
  2  4  2  0  0  0  0
  3  5  1  0  0  0  0
  4  6  1  0  0  0  0
  5  6  2  0  0  0  0
  5 10  1  0  0  0  0
  6 11  1  0  0  0  0
  7  8  1  0  0  0  0
  7 10  1  0  0  0  0
  8  9  1  0  0  0  0
  8 11  1  0  0  0  0
  9 12  1  0  0  0  0
  1 13  1  0  0  0  0
  2 14  1  0  0  0  0
  3 15  1  0  0  0  0
  4 16  1  0  0  0  0
  7 17  1  0  0  0  0
  7 18  1  0  0  0  0
  8 19  1  0  0  0  0
  9 20  1  0  0  0  0
  9 21  1  0  0  0  0
 10 22  1  0  0  0  0
 12 23  1  0  0  0  0
M  END
$$$$
frag.vs.262_1
  -OEChem-01121112263D

 23 24  0     1  0  0  0  0  0999 V2000
    1.3208    0.5785    2.4576 C   0  0  0  0  0  0  0  0  0  0  0  0
   -0.0163    0.3243    2.7579 C   0  0  0  0  0  0  0  0  0  0  0  0
    1.7726    0.4924    1.1387 C   0  0  0  0  0  0  0  0  0  0  0  0
   -0.9082   -0.0039    1.7393 C   0  0  0  0  0  0  0  0  0  0  0  0
    0.8943    0.1452    0.1057 C   0  0  0  0  0  0  0  0  0  0  0  0
   -0.4569   -0.0727    0.4201 C   0  0  0  0  0  0  0  0  0  0  0  0
    0.4246   -0.5204   -2.1678 C   0  0  0  0  0  0  0  0  0  0  0  0
   -0.9841   -0.0094   -1.8661 C   0  0  1  0  0  0  0  0  0  0  0  0
   -1.9973   -0.5958   -2.8405 C   0  0  0  0  0  0  0  0  0  0  0  0
    1.3408    0.0514   -1.2054 N   0  0  0  0  0  0  0  0  0  0  0  0
   -1.3905   -0.3897   -0.5394 O   0  0  0  0  0  0  0  0  0  0  0  0
   -3.2827   -0.1000   -2.5105 O   0  0  0  0  0  0  0  0  0  0  0  0
    2.0145    0.8405    3.2514 H   0  0  0  0  0  0  0  0  0  0  0  0
   -0.3638    0.3873    3.7850 H   0  0  0  0  0  0  0  0  0  0  0  0
    2.8211    0.6875    0.9256 H   0  0  0  0  0  0  0  0  0  0  0  0
   -1.9515   -0.1925    1.9771 H   0  0  0  0  0  0  0  0  0  0  0  0
    0.4652   -1.6137   -2.0899 H   0  0  0  0  0  0  0  0  0  0  0  0
    0.7343   -0.2406   -3.1802 H   0  0  0  0  0  0  0  0  0  0  0  0
   -1.0236    1.0865   -1.9368 H   0  0  0  0  0  0  0  0  0  0  0  0
   -2.0024   -1.6840   -2.7655 H   0  0  0  0  0  0  0  0  0  0  0  0
   -1.7500   -0.3004   -3.8611 H   0  0  0  0  0  0  0  0  0  0  0  0
    2.3299    0.1120   -1.4120 H   0  0  0  0  0  0  0  0  0  0  0  0
   -3.9090   -0.4879   -3.1450 H   0  0  0  0  0  0  0  0  0  0  0  0
  1  2  1  0  0  0  0
  1  3  2  0  0  0  0
  2  4  2  0  0  0  0
  3  5  1  0  0  0  0
  4  6  1  0  0  0  0
  5  6  2  0  0  0  0
  5 10  1  0  0  0  0
  6 11  1  0  0  0  0
  7  8  1  0  0  0  0
  7 10  1  0  0  0  0
  8  9  1  0  0  0  0
  8 11  1  0  0  0  0
  9 12  1  0  0  0  0
  1 13  1  0  0  0  0
  2 14  1  0  0  0  0
  3 15  1  0  0  0  0
  4 16  1  0  0  0  0
  7 17  1  0  0  0  0
  7 18  1  0  0  0  0
  8 19  1  0  0  0  0
  9 20  1  0  0  0  0
  9 21  1  0  0  0  0
 10 22  1  0  0  0  0
 12 23  1  0  0  0  0
M  END
$$$$
frag.vs.263
  -OEChem-01121112263D

 22 23  0     0  0  0  0  0  0999 V2000
   -6.7096    1.7504   -2.7158 C   0  0  0  0  0  0  0  0  0  0  0  0
   -5.8540    2.8476   -2.7073 C   0  0  0  0  0  0  0  0  0  0  0  0
   -3.7923    3.8556   -1.4848 C   0  0  0  0  0  0  0  0  0  0  0  0
   -6.5020    0.7495   -1.7834 C   0  0  0  0  0  0  0  0  0  0  0  0
   -4.8171    2.8924   -1.7534 C   0  0  0  0  0  0  0  0  0  0  0  0
   -2.9783    3.4840   -0.4374 C   0  0  0  0  0  0  0  0  0  0  0  0
   -4.7253    1.8167   -0.8763 C   0  0  0  0  0  0  0  0  0  0  0  0
    0.4739    4.8637   -0.1157 C   0  0  0  0  0  0  0  0  0  0  0  0
   -1.8225    4.2108    0.1315 C   0  0  0  0  0  0  0  0  0  0  0  0
   -5.5298    0.7336   -0.8465 N   0  0  0  0  0  0  0  0  0  0  0  0
   -0.6437    4.1277   -0.7011 N   0  0  0  0  0  0  0  0  0  0  0  0
   -3.4379    1.9786    0.2303 S   0  0  0  0  0  0  0  0  0  0  0  0
   -7.5177    1.6831   -3.4354 H   0  0  0  0  0  0  0  0  0  0  0  0
   -5.9882    3.6515   -3.4251 H   0  0  0  0  0  0  0  0  0  0  0  0
   -3.6629    4.7779   -2.0382 H   0  0  0  0  0  0  0  0  0  0  0  0
   -7.1552   -0.1186   -1.7676 H   0  0  0  0  0  0  0  0  0  0  0  0
    0.2037    5.9146    0.0163 H   0  0  0  0  0  0  0  0  0  0  0  0
    1.3488    4.8046   -0.7688 H   0  0  0  0  0  0  0  0  0  0  0  0
    0.7350    4.4423    0.8588 H   0  0  0  0  0  0  0  0  0  0  0  0
   -2.0424    5.2833    0.2700 H   0  0  0  0  0  0  0  0  0  0  0  0
   -1.5379    3.8253    1.1253 H   0  0  0  0  0  0  0  0  0  0  0  0
   -0.3681    3.1488   -0.8151 H   0  0  0  0  0  0  0  0  0  0  0  0
  1  2  2  0  0  0  0
  1  4  1  0  0  0  0
  2  5  1  0  0  0  0
  3  5  1  0  0  0  0
  3  6  2  0  0  0  0
  4 10  2  0  0  0  0
  5  7  2  0  0  0  0
  6  9  1  0  0  0  0
  6 12  1  0  0  0  0
  7 10  1  0  0  0  0
  7 12  1  0  0  0  0
  8 11  1  0  0  0  0
  9 11  1  0  0  0  0
  1 13  1  0  0  0  0
  2 14  1  0  0  0  0
  3 15  1  0  0  0  0
  4 16  1  0  0  0  0
  8 17  1  0  0  0  0
  8 18  1  0  0  0  0
  8 19  1  0  0  0  0
  9 20  1  0  0  0  0
  9 21  1  0  0  0  0
 11 22  1  0  0  0  0
M  END
$$$$
frag.vs.264
  -OEChem-01121112263D

 29 30  0     0  0  0  0  0  0999 V2000
    1.8845   -1.0348   -0.1124 C   0  0  0  0  0  0  0  0  0  0  0  0
    1.7190    0.1535    0.5990 C   0  0  0  0  0  0  0  0  0  0  0  0
    2.0076   -2.2450    0.5701 C   0  0  0  0  0  0  0  0  0  0  0  0
    1.6766    0.1316    1.9931 C   0  0  0  0  0  0  0  0  0  0  0  0
    1.9652   -2.2669    1.9642 C   0  0  0  0  0  0  0  0  0  0  0  0
    1.7997   -1.0786    2.6757 C   0  0  0  0  0  0  0  0  0  0  0  0
    1.5337   -1.8098    6.1808 C   0  0  0  0  0  0  0  0  0  0  0  0
    1.8345   -0.4902    6.4457 C   0  0  0  0  0  0  0  0  0  0  0  0
    1.7549   -1.1012    4.1171 C   0  0  0  0  0  0  0  0  0  0  0  0
    1.2618   -2.8576    7.1858 C   0  0  0  0  0  0  0  0  0  0  0  0
    0.8545    1.1987    9.6239 C   0  0  0  0  0  0  0  0  0  0  0  0
    1.9642    0.2153    7.7367 C   0  0  0  0  0  0  0  0  0  0  0  0
    1.4872   -2.1619    4.8460 N   0  0  0  0  0  0  0  0  0  0  0  0
    0.6871    0.4928    8.3567 N   0  0  0  0  0  0  0  0  0  0  0  0
    2.0726    0.3528    4.9713 S   0  0  0  0  0  0  0  0  0  0  0  0
    1.9169   -1.0177   -1.1979 H   0  0  0  0  0  0  0  0  0  0  0  0
    1.6234    1.0958    0.0673 H   0  0  0  0  0  0  0  0  0  0  0  0
    2.1354   -3.1704    0.0161 H   0  0  0  0  0  0  0  0  0  0  0  0
    1.5443    1.0660    2.5332 H   0  0  0  0  0  0  0  0  0  0  0  0
    2.0637   -3.2183    2.4816 H   0  0  0  0  0  0  0  0  0  0  0  0
    0.1879   -2.9050    7.4282 H   0  0  0  0  0  0  0  0  0  0  0  0
    1.5715   -3.8564    6.8350 H   0  0  0  0  0  0  0  0  0  0  0  0
    1.8109   -2.6801    8.1259 H   0  0  0  0  0  0  0  0  0  0  0  0
    1.3840    2.1412    9.4619 H   0  0  0  0  0  0  0  0  0  0  0  0
    1.4303    0.5873   10.3240 H   0  0  0  0  0  0  0  0  0  0  0  0
   -0.1210    1.4150   10.0679 H   0  0  0  0  0  0  0  0  0  0  0  0
    2.5529   -0.3685    8.4663 H   0  0  0  0  0  0  0  0  0  0  0  0
    2.4826    1.1845    7.6326 H   0  0  0  0  0  0  0  0  0  0  0  0
    0.1903   -0.3841    8.5320 H   0  0  0  0  0  0  0  0  0  0  0  0
  1  2  1  0  0  0  0
  1  3  2  0  0  0  0
  2  4  2  0  0  0  0
  3  5  1  0  0  0  0
  4  6  1  0  0  0  0
  5  6  2  0  0  0  0
  6  9  1  0  0  0  0
  7  8  2  0  0  0  0
  7 10  1  0  0  0  0
  7 13  1  0  0  0  0
  8 12  1  0  0  0  0
  8 15  1  0  0  0  0
  9 13  2  0  0  0  0
  9 15  1  0  0  0  0
 11 14  1  0  0  0  0
 12 14  1  0  0  0  0
  1 16  1  0  0  0  0
  2 17  1  0  0  0  0
  3 18  1  0  0  0  0
  4 19  1  0  0  0  0
  5 20  1  0  0  0  0
 10 21  1  0  0  0  0
 10 22  1  0  0  0  0
 10 23  1  0  0  0  0
 11 24  1  0  0  0  0
 11 25  1  0  0  0  0
 11 26  1  0  0  0  0
 12 27  1  0  0  0  0
 12 28  1  0  0  0  0
 14 29  1  0  0  0  0
M  END
$$$$
frag.vs.265
  -OEChem-01121112263D

 24 25  0     0  0  0  0  0  0999 V2000
    1.7839    2.9279    5.0454 C   0  0  0  0  0  0  0  0  0  0  0  0
    2.6103    2.4602    4.0237 C   0  0  0  0  0  0  0  0  0  0  0  0
    0.9499    2.0426    5.7283 C   0  0  0  0  0  0  0  0  0  0  0  0
    2.6025    1.1072    3.6847 C   0  0  0  0  0  0  0  0  0  0  0  0
    0.9421    0.6896    5.3892 C   0  0  0  0  0  0  0  0  0  0  0  0
    4.1692   -3.0159    5.9131 C   0  0  0  0  0  0  0  0  0  0  0  0
    3.5994   -1.7437    5.6678 C   0  0  0  0  0  0  0  0  0  0  0  0
    1.7684    0.2219    4.3674 C   0  0  0  0  0  0  0  0  0  0  0  0
    3.5234   -3.8922    5.0722 C   0  0  0  0  0  0  0  0  0  0  0  0
    2.6462   -1.9333    4.6944 C   0  0  0  0  0  0  0  0  0  0  0  0
    3.6455   -5.3383    4.8403 C   0  0  0  0  0  0  0  0  0  0  0  0
    2.5937   -3.2403    4.3259 O   0  0  0  0  0  0  0  0  0  0  0  0
    2.5469   -6.0294    5.4399 O   0  0  0  0  0  0  0  0  0  0  0  0
    1.7593   -1.0981    4.0359 O   0  0  0  0  0  0  0  0  0  0  0  0
    1.7902    3.9812    5.3101 H   0  0  0  0  0  0  0  0  0  0  0  0
    3.2597    3.1495    3.4918 H   0  0  0  0  0  0  0  0  0  0  0  0
    0.3068    2.4075    6.5239 H   0  0  0  0  0  0  0  0  0  0  0  0
    3.2476    0.7495    2.8867 H   0  0  0  0  0  0  0  0  0  0  0  0
    0.2890    0.0048    5.9233 H   0  0  0  0  0  0  0  0  0  0  0  0
    4.9526   -3.2603    6.6160 H   0  0  0  0  0  0  0  0  0  0  0  0
    3.8536   -0.8069    6.1426 H   0  0  0  0  0  0  0  0  0  0  0  0
    3.6554   -5.5943    3.7636 H   0  0  0  0  0  0  0  0  0  0  0  0
    4.5786   -5.7533    5.2666 H   0  0  0  0  0  0  0  0  0  0  0  0
    2.6835   -6.9700    5.2539 H   0  0  0  0  0  0  0  0  0  0  0  0
  1  2  1  0  0  0  0
  1  3  2  0  0  0  0
  2  4  2  0  0  0  0
  3  5  1  0  0  0  0
  4  8  1  0  0  0  0
  5  8  2  0  0  0  0
  6  7  1  0  0  0  0
  6  9  2  0  0  0  0
  7 10  2  0  0  0  0
  8 14  1  0  0  0  0
  9 11  1  0  0  0  0
  9 12  1  0  0  0  0
 10 12  1  0  0  0  0
 10 14  1  0  0  0  0
 11 13  1  0  0  0  0
  1 15  1  0  0  0  0
  2 16  1  0  0  0  0
  3 17  1  0  0  0  0
  4 18  1  0  0  0  0
  5 19  1  0  0  0  0
  6 20  1  0  0  0  0
  7 21  1  0  0  0  0
 11 22  1  0  0  0  0
 11 23  1  0  0  0  0
 13 24  1  0  0  0  0
M  END
$$$$
frag.vs.266
  -OEChem-01121112263D

 34 35  0     0  0  0  0  0  0999 V2000
   -1.2792   -7.1826    1.4273 C   0  0  0  0  0  0  0  0  0  0  0  0
   -1.6842   -6.8879    0.1255 C   0  0  0  0  0  0  0  0  0  0  0  0
   -0.1768   -6.5300    1.9794 C   0  0  0  0  0  0  0  0  0  0  0  0
   -0.9869   -5.9407   -0.6243 C   0  0  0  0  0  0  0  0  0  0  0  0
    0.5205   -5.5828    1.2295 C   0  0  0  0  0  0  0  0  0  0  0  0
    0.1154   -5.2882   -0.0723 C   0  0  0  0  0  0  0  0  0  0  0  0
    1.1017    0.0943   -2.5266 C   0  0  0  0  0  0  0  0  0  0  0  0
   -0.5634   -0.2663   -0.8248 C   0  0  0  0  0  0  0  0  0  0  0  0
    0.2920    1.2875   -3.0260 C   0  0  0  0  0  0  0  0  0  0  0  0
   -1.3344    0.9347   -1.3650 C   0  0  0  0  0  0  0  0  0  0  0  0
    0.9621   -2.0406   -1.4116 C   0  0  0  0  0  0  0  0  0  0  0  0
    0.0396   -3.2382   -1.2755 C   0  0  0  0  0  0  0  0  0  0  0  0
    0.2058   -0.8932   -1.9086 N   0  0  0  0  0  0  0  0  0  0  0  0
    1.6342   -4.9299    1.8009 N   0  0  0  0  0  0  0  0  0  0  0  0
   -0.4373    1.8792   -1.9501 O   0  0  0  0  0  0  0  0  0  0  0  0
    0.7869   -4.3612   -0.8258 O   0  0  0  0  0  0  0  0  0  0  0  0
   -1.8216   -7.9206    2.0108 H   0  0  0  0  0  0  0  0  0  0  0  0
   -2.5426   -7.3958   -0.3040 H   0  0  0  0  0  0  0  0  0  0  0  0
    0.1294   -6.7674    2.9952 H   0  0  0  0  0  0  0  0  0  0  0  0
   -1.3079   -5.7153   -1.6379 H   0  0  0  0  0  0  0  0  0  0  0  0
    1.6350   -0.3534   -3.3729 H   0  0  0  0  0  0  0  0  0  0  0  0
    1.8473    0.4388   -1.7983 H   0  0  0  0  0  0  0  0  0  0  0  0
    0.1096    0.0631   -0.0223 H   0  0  0  0  0  0  0  0  0  0  0  0
   -1.2743   -0.9836   -0.3991 H   0  0  0  0  0  0  0  0  0  0  0  0
    0.9641    2.0506   -3.4313 H   0  0  0  0  0  0  0  0  0  0  0  0
   -0.4027    0.9994   -3.8244 H   0  0  0  0  0  0  0  0  0  0  0  0
   -2.0844    0.6339   -2.1067 H   0  0  0  0  0  0  0  0  0  0  0  0
   -1.8606    1.4382   -0.5477 H   0  0  0  0  0  0  0  0  0  0  0  0
    1.4042   -1.7686   -0.4479 H   0  0  0  0  0  0  0  0  0  0  0  0
    1.7632   -2.2561   -2.1251 H   0  0  0  0  0  0  0  0  0  0  0  0
   -0.3948   -3.4890   -2.2482 H   0  0  0  0  0  0  0  0  0  0  0  0
   -0.7686   -3.0447   -0.5628 H   0  0  0  0  0  0  0  0  0  0  0  0
    1.8766   -5.1228    2.7509 H   0  0  0  0  0  0  0  0  0  0  0  0
    2.1019   -4.2185    1.2777 H   0  0  0  0  0  0  0  0  0  0  0  0
  1  2  1  0  0  0  0
  1  3  2  0  0  0  0
  2  4  2  0  0  0  0
  3  5  1  0  0  0  0
  4  6  1  0  0  0  0
  5  6  2  0  0  0  0
  5 14  1  0  0  0  0
  6 16  1  0  0  0  0
  7  9  1  0  0  0  0
  7 13  1  0  0  0  0
  8 10  1  0  0  0  0
  8 13  1  0  0  0  0
  9 15  1  0  0  0  0
 10 15  1  0  0  0  0
 11 12  1  0  0  0  0
 11 13  1  0  0  0  0
 12 16  1  0  0  0  0
  1 17  1  0  0  0  0
  2 18  1  0  0  0  0
  3 19  1  0  0  0  0
  4 20  1  0  0  0  0
  7 21  1  0  0  0  0
  7 22  1  0  0  0  0
  8 23  1  0  0  0  0
  8 24  1  0  0  0  0
  9 25  1  0  0  0  0
  9 26  1  0  0  0  0
 10 27  1  0  0  0  0
 10 28  1  0  0  0  0
 11 29  1  0  0  0  0
 11 30  1  0  0  0  0
 12 31  1  0  0  0  0
 12 32  1  0  0  0  0
 14 33  1  0  0  0  0
 14 34  1  0  0  0  0
M  END
$$$$
frag.vs.267
  -OEChem-01121112263D

 23 24  0     0  0  0  0  0  0999 V2000
    1.8851   -1.0363   -0.1124 C   0  0  0  0  0  0  0  0  0  0  0  0
    0.8066   -0.4630    0.5610 C   0  0  0  0  0  0  0  0  0  0  0  0
    1.6203   -0.3943    6.1660 C   0  0  0  0  0  0  0  0  0  0  0  0
    1.6478   -1.8108    6.1575 C   0  0  0  0  0  0  0  0  0  0  0  0
    2.9210   -1.6309    0.6081 C   0  0  0  0  0  0  0  0  0  0  0  0
    0.7638   -0.4841    1.9551 C   0  0  0  0  0  0  0  0  0  0  0  0
    1.6744    0.0260    4.8554 C   0  0  0  0  0  0  0  0  0  0  0  0
    1.7181   -2.2129    4.8420 C   0  0  0  0  0  0  0  0  0  0  0  0
    2.8783   -1.6520    2.0022 C   0  0  0  0  0  0  0  0  0  0  0  0
    1.7997   -1.0786    2.6757 C   0  0  0  0  0  0  0  0  0  0  0  0
    3.9799   -2.2834    2.7197 C   0  0  0  0  0  0  0  0  0  0  0  0
    1.7339   -1.0880    4.0593 N   0  0  0  0  0  0  0  0  0  0  0  0
    4.7162   -1.7198    3.5324 O   0  0  0  0  0  0  0  0  0  0  0  0
    4.1210   -3.5967    2.3968 O   0  0  0  0  0  0  0  0  0  0  0  0
    1.9187   -1.0200   -1.1979 H   0  0  0  0  0  0  0  0  0  0  0  0
   -0.0000   -0.0005   -0.0003 H   0  0  0  0  0  0  0  0  0  0  0  0
    1.5673    0.2499    7.0324 H   0  0  0  0  0  0  0  0  0  0  0  0
    1.6202   -2.4671    7.0161 H   0  0  0  0  0  0  0  0  0  0  0  0
    3.7557   -2.0747    0.0714 H   0  0  0  0  0  0  0  0  0  0  0  0
   -0.0837   -0.0328    2.4658 H   0  0  0  0  0  0  0  0  0  0  0  0
    1.6778    1.0223    4.4322 H   0  0  0  0  0  0  0  0  0  0  0  0
    1.7578   -3.2033    4.4072 H   0  0  0  0  0  0  0  0  0  0  0  0
    4.8593   -4.0310    2.8751 H   0  0  0  0  0  0  0  0  0  0  0  0
  1  2  1  0  0  0  0
  1  5  2  0  0  0  0
  2  6  2  0  0  0  0
  3  4  1  0  0  0  0
  3  7  2  0  0  0  0
  4  8  2  0  0  0  0
  5  9  1  0  0  0  0
  6 10  1  0  0  0  0
  7 12  1  0  0  0  0
  8 12  1  0  0  0  0
  9 10  2  0  0  0  0
  9 11  1  0  0  0  0
 10 12  1  0  0  0  0
 11 13  2  0  0  0  0
 11 14  1  0  0  0  0
  1 15  1  0  0  0  0
  2 16  1  0  0  0  0
  3 17  1  0  0  0  0
  4 18  1  0  0  0  0
  5 19  1  0  0  0  0
  6 20  1  0  0  0  0
  7 21  1  0  0  0  0
  8 22  1  0  0  0  0
 14 23  1  0  0  0  0
M  END
$$$$
frag.vs.268
  -OEChem-01121112263D

 25 26  0     0  0  0  0  0  0999 V2000
    1.8851   -1.0363   -0.1124 C   0  0  0  0  0  0  0  0  0  0  0  0
    0.8066   -0.4630    0.5610 C   0  0  0  0  0  0  0  0  0  0  0  0
    1.6308   -0.3941    6.1660 C   0  0  0  0  0  0  0  0  0  0  0  0
    1.6572   -1.8106    6.1575 C   0  0  0  0  0  0  0  0  0  0  0  0
    2.9210   -1.6309    0.6081 C   0  0  0  0  0  0  0  0  0  0  0  0
    0.7638   -0.4841    1.9551 C   0  0  0  0  0  0  0  0  0  0  0  0
    1.6814    0.0261    4.8552 C   0  0  0  0  0  0  0  0  0  0  0  0
    1.7234   -2.2128    4.8417 C   0  0  0  0  0  0  0  0  0  0  0  0
    2.8783   -1.6520    2.0022 C   0  0  0  0  0  0  0  0  0  0  0  0
    1.7997   -1.0786    2.6757 C   0  0  0  0  0  0  0  0  0  0  0  0
    4.0043   -2.2967    2.7449 C   0  0  0  0  0  0  0  0  0  0  0  0
    1.7378   -1.0879    4.0590 N   0  0  0  0  0  0  0  0  0  0  0  0
    3.9412   -3.7337    2.6886 N   0  0  0  0  0  0  0  0  0  0  0  0
    1.9182   -1.0203   -1.1979 H   0  0  0  0  0  0  0  0  0  0  0  0
    0.0001    0.0001   -0.0000 H   0  0  0  0  0  0  0  0  0  0  0  0
    1.5807    0.2502    7.0325 H   0  0  0  0  0  0  0  0  0  0  0  0
    1.6314   -2.4669    7.0161 H   0  0  0  0  0  0  0  0  0  0  0  0
    3.7569   -2.0744    0.0736 H   0  0  0  0  0  0  0  0  0  0  0  0
   -0.0838   -0.0324    2.4647 H   0  0  0  0  0  0  0  0  0  0  0  0
    1.6845    1.0224    4.4320 H   0  0  0  0  0  0  0  0  0  0  0  0
    1.7611   -3.2033    4.4069 H   0  0  0  0  0  0  0  0  0  0  0  0
    4.9738   -1.9898    2.3314 H   0  0  0  0  0  0  0  0  0  0  0  0
    4.0018   -2.0074    3.8035 H   0  0  0  0  0  0  0  0  0  0  0  0
    4.3682   -4.2720    3.4246 H   0  0  0  0  0  0  0  0  0  0  0  0
    3.6587   -4.1783    1.8304 H   0  0  0  0  0  0  0  0  0  0  0  0
  1  2  1  0  0  0  0
  1  5  2  0  0  0  0
  2  6  2  0  0  0  0
  3  4  1  0  0  0  0
  3  7  2  0  0  0  0
  4  8  2  0  0  0  0
  5  9  1  0  0  0  0
  6 10  1  0  0  0  0
  7 12  1  0  0  0  0
  8 12  1  0  0  0  0
  9 10  2  0  0  0  0
  9 11  1  0  0  0  0
 10 12  1  0  0  0  0
 11 13  1  0  0  0  0
  1 14  1  0  0  0  0
  2 15  1  0  0  0  0
  3 16  1  0  0  0  0
  4 17  1  0  0  0  0
  5 18  1  0  0  0  0
  6 19  1  0  0  0  0
  7 20  1  0  0  0  0
  8 21  1  0  0  0  0
 11 22  1  0  0  0  0
 11 23  1  0  0  0  0
 13 24  1  0  0  0  0
 13 25  1  0  0  0  0
M  END
$$$$
frag.vs.269
  -OEChem-01121112263D

 29 30  0     0  0  0  0  0  0999 V2000
   -5.1171    3.2271   -2.6440 C   0  0  0  0  0  0  0  0  0  0  0  0
   -3.7585    3.5709   -4.6120 C   0  0  0  0  0  0  0  0  0  0  0  0
   -4.1473    2.3700   -2.1241 C   0  0  0  0  0  0  0  0  0  0  0  0
   -2.7886    2.7138   -4.0921 C   0  0  0  0  0  0  0  0  0  0  0  0
   -4.9228    3.8275   -3.8879 C   0  0  0  0  0  0  0  0  0  0  0  0
   -2.9830    2.1133   -2.8481 C   0  0  0  0  0  0  0  0  0  0  0  0
   -0.6880    0.0187   -0.7846 C   0  0  0  0  0  0  0  0  0  0  0  0
   -0.1934   -0.2727   -2.1869 C   0  0  0  0  0  0  0  0  0  0  0  0
   -2.0912    0.5620   -1.0288 C   0  0  0  0  0  0  0  0  0  0  0  0
   -0.7409    0.9030   -2.9879 C   0  0  0  0  0  0  0  0  0  0  0  0
   -5.9594    4.7438   -4.4448 C   0  0  0  0  0  0  0  0  0  0  0  0
   -2.0029    1.2497   -2.3229 N   0  0  0  0  0  0  0  0  0  0  0  0
   -7.1056    4.0316   -4.9500 N   0  0  0  0  0  0  0  0  0  0  0  0
   -6.0216    3.4206   -2.0736 H   0  0  0  0  0  0  0  0  0  0  0  0
   -3.5992    4.0328   -5.5826 H   0  0  0  0  0  0  0  0  0  0  0  0
   -4.3093    1.9062   -1.1545 H   0  0  0  0  0  0  0  0  0  0  0  0
   -1.8855    2.5204   -4.6652 H   0  0  0  0  0  0  0  0  0  0  0  0
   -0.6871   -0.8636   -0.1388 H   0  0  0  0  0  0  0  0  0  0  0  0
   -0.0614    0.7880   -0.3175 H   0  0  0  0  0  0  0  0  0  0  0  0
    0.8956   -0.3502   -2.2488 H   0  0  0  0  0  0  0  0  0  0  0  0
   -0.6266   -1.2122   -2.5509 H   0  0  0  0  0  0  0  0  0  0  0  0
   -2.8202   -0.2535   -1.0951 H   0  0  0  0  0  0  0  0  0  0  0  0
   -2.3938    1.2437   -0.2269 H   0  0  0  0  0  0  0  0  0  0  0  0
   -0.0563    1.7577   -2.9446 H   0  0  0  0  0  0  0  0  0  0  0  0
   -0.8966    0.6266   -4.0361 H   0  0  0  0  0  0  0  0  0  0  0  0
   -6.3186    5.4469   -3.6802 H   0  0  0  0  0  0  0  0  0  0  0  0
   -5.5605    5.3495   -5.2700 H   0  0  0  0  0  0  0  0  0  0  0  0
   -7.6645    4.4549   -5.6717 H   0  0  0  0  0  0  0  0  0  0  0  0
   -7.4455    3.2313   -4.4435 H   0  0  0  0  0  0  0  0  0  0  0  0
  1  3  1  0  0  0  0
  1  5  2  0  0  0  0
  2  4  2  0  0  0  0
  2  5  1  0  0  0  0
  3  6  2  0  0  0  0
  4  6  1  0  0  0  0
  5 11  1  0  0  0  0
  6 12  1  0  0  0  0
  7  8  1  0  0  0  0
  7  9  1  0  0  0  0
  8 10  1  0  0  0  0
  9 12  1  0  0  0  0
 10 12  1  0  0  0  0
 11 13  1  0  0  0  0
  1 14  1  0  0  0  0
  2 15  1  0  0  0  0
  3 16  1  0  0  0  0
  4 17  1  0  0  0  0
  7 18  1  0  0  0  0
  7 19  1  0  0  0  0
  8 20  1  0  0  0  0
  8 21  1  0  0  0  0
  9 22  1  0  0  0  0
  9 23  1  0  0  0  0
 10 24  1  0  0  0  0
 10 25  1  0  0  0  0
 11 26  1  0  0  0  0
 11 27  1  0  0  0  0
 13 28  1  0  0  0  0
 13 29  1  0  0  0  0
M  END
$$$$
frag.vs.270
  -OEChem-01121112263D

 29 30  0     0  0  0  0  0  0999 V2000
   -1.7170   -2.1034    2.9591 C   0  0  0  0  0  0  0  0  0  0  0  0
   -2.8944   -2.5079    2.3301 C   0  0  0  0  0  0  0  0  0  0  0  0
   -1.4409   -0.7450    3.1151 C   0  0  0  0  0  0  0  0  0  0  0  0
   -3.5194   -0.1958    2.0128 C   0  0  0  0  0  0  0  0  0  0  0  0
   -3.7956   -1.5542    1.8569 C   0  0  0  0  0  0  0  0  0  0  0  0
   -2.3420    0.2087    2.6419 C   0  0  0  0  0  0  0  0  0  0  0  0
   -0.0068    0.9827   -0.2814 C   0  0  0  0  0  0  0  0  0  0  0  0
   -0.8939    2.0197   -0.9422 C   0  0  0  0  0  0  0  0  0  0  0  0
    0.1140    1.4863    1.1507 C   0  0  0  0  0  0  0  0  0  0  0  0
   -1.9263    2.3018    0.1378 C   0  0  0  0  0  0  0  0  0  0  0  0
   -1.1461    2.2443    1.4045 N   0  0  0  0  0  0  0  0  0  0  0  0
   -4.9856   -1.9635    1.2203 N   0  0  0  0  0  0  0  0  0  0  0  0
   -3.2623    2.6364    2.8236 O   0  0  0  0  0  0  0  0  0  0  0  0
   -1.0944    2.0670    3.9741 O   0  0  0  0  0  0  0  0  0  0  0  0
   -1.9937    1.9304    2.8424 S   0  0  0  0  0  0  0  0  0  0  0  0
   -1.0154   -2.8458    3.3278 H   0  0  0  0  0  0  0  0  0  0  0  0
   -3.0992   -3.5690    2.2136 H   0  0  0  0  0  0  0  0  0  0  0  0
   -0.5211   -0.4407    3.6076 H   0  0  0  0  0  0  0  0  0  0  0  0
   -4.2221    0.5481    1.6437 H   0  0  0  0  0  0  0  0  0  0  0  0
   -0.5011    0.0037   -0.2944 H   0  0  0  0  0  0  0  0  0  0  0  0
    0.9656    0.8794   -0.7709 H   0  0  0  0  0  0  0  0  0  0  0  0
   -0.3164    2.9251   -1.1639 H   0  0  0  0  0  0  0  0  0  0  0  0
   -1.3468    1.6624   -1.8710 H   0  0  0  0  0  0  0  0  0  0  0  0
    0.2483    0.6572    1.8514 H   0  0  0  0  0  0  0  0  0  0  0  0
    0.9568    2.1775    1.2565 H   0  0  0  0  0  0  0  0  0  0  0  0
   -2.3874    3.2847    0.0110 H   0  0  0  0  0  0  0  0  0  0  0  0
   -2.7021    1.5282    0.1378 H   0  0  0  0  0  0  0  0  0  0  0  0
   -5.1493   -2.9388    1.0723 H   0  0  0  0  0  0  0  0  0  0  0  0
   -5.6005   -1.2706    0.8438 H   0  0  0  0  0  0  0  0  0  0  0  0
  1  2  1  0  0  0  0
  1  3  2  0  0  0  0
  2  5  2  0  0  0  0
  3  6  1  0  0  0  0
  4  5  1  0  0  0  0
  4  6  2  0  0  0  0
  5 12  1  0  0  0  0
  6 15  1  0  0  0  0
  7  8  1  0  0  0  0
  7  9  1  0  0  0  0
  8 10  1  0  0  0  0
  9 11  1  0  0  0  0
 10 11  1  0  0  0  0
 11 15  1  0  0  0  0
 13 15  2  0  0  0  0
 14 15  2  0  0  0  0
  1 16  1  0  0  0  0
  2 17  1  0  0  0  0
  3 18  1  0  0  0  0
  4 19  1  0  0  0  0
  7 20  1  0  0  0  0
  7 21  1  0  0  0  0
  8 22  1  0  0  0  0
  8 23  1  0  0  0  0
  9 24  1  0  0  0  0
  9 25  1  0  0  0  0
 10 26  1  0  0  0  0
 10 27  1  0  0  0  0
 12 28  1  0  0  0  0
 12 29  1  0  0  0  0
M  END
$$$$
frag.vs.271
  -OEChem-01121112263D

 24 25  0     0  0  0  0  0  0999 V2000
   -0.1181   -0.6401   -0.8634 C   0  0  0  0  0  0  0  0  0  0  0  0
   -0.0399   -0.3963   -2.2145 C   0  0  0  0  0  0  0  0  0  0  0  0
   -0.4822   -2.4809   -2.0488 C   0  0  0  0  0  0  0  0  0  0  0  0
   -0.7718   -3.8704   -2.1866 C   0  0  0  0  0  0  0  0  0  0  0  0
   -0.9518   -4.6267   -1.0866 C   0  0  0  0  0  0  0  0  0  0  0  0
   -0.8585   -4.0608    0.2498 C   0  0  0  0  0  0  0  0  0  0  0  0
   -0.5865   -2.7529    0.3879 C   0  0  0  0  0  0  0  0  0  0  0  0
    0.2379    0.8651   -2.8307 C   0  0  0  0  0  0  0  0  0  0  0  0
    0.4845    1.6793   -6.4199 C   0  0  0  0  0  0  0  0  0  0  0  0
    0.5189    1.9882   -4.9383 C   0  0  0  0  0  0  0  0  0  0  0  0
   -0.2662   -1.5371   -2.9422 N   0  0  0  0  0  0  0  0  0  0  0  0
   -0.4015   -1.9773   -0.7532 N   0  0  0  0  0  0  0  0  0  0  0  0
    0.4516    1.9368   -2.2207 O   0  0  0  0  0  0  0  0  0  0  0  0
    0.2503    0.7881   -4.2054 O   0  0  0  0  0  0  0  0  0  0  0  0
   -0.0008   -0.0026    0.0025 H   0  0  0  0  0  0  0  0  0  0  0  0
   -0.8438   -4.3035   -3.1780 H   0  0  0  0  0  0  0  0  0  0  0  0
   -1.1727   -5.6852   -1.1713 H   0  0  0  0  0  0  0  0  0  0  0  0
   -1.0107   -4.7071    1.1056 H   0  0  0  0  0  0  0  0  0  0  0  0
   -0.5031   -2.2676    1.3526 H   0  0  0  0  0  0  0  0  0  0  0  0
    1.2413    0.9343   -6.6808 H   0  0  0  0  0  0  0  0  0  0  0  0
   -0.5003    1.3005   -6.7124 H   0  0  0  0  0  0  0  0  0  0  0  0
    0.6641    2.5859   -7.0072 H   0  0  0  0  0  0  0  0  0  0  0  0
   -0.2402    2.7339   -4.6840 H   0  0  0  0  0  0  0  0  0  0  0  0
    1.5038    2.3658   -4.6475 H   0  0  0  0  0  0  0  0  0  0  0  0
  1  2  2  0  0  0  0
  1 12  1  0  0  0  0
  2  8  1  0  0  0  0
  2 11  1  0  0  0  0
  3  4  1  0  0  0  0
  3 11  2  0  0  0  0
  3 12  1  0  0  0  0
  4  5  2  0  0  0  0
  5  6  1  0  0  0  0
  6  7  2  0  0  0  0
  7 12  1  0  0  0  0
  8 13  2  0  0  0  0
  8 14  1  0  0  0  0
  9 10  1  0  0  0  0
 10 14  1  0  0  0  0
  1 15  1  0  0  0  0
  4 16  1  0  0  0  0
  5 17  1  0  0  0  0
  6 18  1  0  0  0  0
  7 19  1  0  0  0  0
  9 20  1  0  0  0  0
  9 21  1  0  0  0  0
  9 22  1  0  0  0  0
 10 23  1  0  0  0  0
 10 24  1  0  0  0  0
M  END
$$$$
frag.vs.272
  -OEChem-01121112263D

 19 20  0     0  0  0  0  0  0999 V2000
   -0.1181   -0.6401   -0.8634 C   0  0  0  0  0  0  0  0  0  0  0  0
   -0.0399   -0.3963   -2.2145 C   0  0  0  0  0  0  0  0  0  0  0  0
   -0.4822   -2.4809   -2.0488 C   0  0  0  0  0  0  0  0  0  0  0  0
   -0.7718   -3.8704   -2.1866 C   0  0  0  0  0  0  0  0  0  0  0  0
   -0.9518   -4.6267   -1.0866 C   0  0  0  0  0  0  0  0  0  0  0  0
   -0.8585   -4.0608    0.2498 C   0  0  0  0  0  0  0  0  0  0  0  0
   -0.5865   -2.7529    0.3879 C   0  0  0  0  0  0  0  0  0  0  0  0
    0.2419    0.8782   -2.8924 C   0  0  0  0  0  0  0  0  0  0  0  0
   -0.2662   -1.5371   -2.9422 N   0  0  0  0  0  0  0  0  0  0  0  0
   -0.4015   -1.9773   -0.7532 N   0  0  0  0  0  0  0  0  0  0  0  0
    1.5779    0.8814   -3.4003 O   0  0  0  0  0  0  0  0  0  0  0  0
   -0.0003   -0.0016    0.0017 H   0  0  0  0  0  0  0  0  0  0  0  0
   -0.8436   -4.3035   -3.1781 H   0  0  0  0  0  0  0  0  0  0  0  0
   -1.1725   -5.6852   -1.1710 H   0  0  0  0  0  0  0  0  0  0  0  0
   -1.0108   -4.7072    1.1055 H   0  0  0  0  0  0  0  0  0  0  0  0
   -0.5031   -2.2673    1.3526 H   0  0  0  0  0  0  0  0  0  0  0  0
   -0.4415    1.0636   -3.7424 H   0  0  0  0  0  0  0  0  0  0  0  0
    0.1361    1.7447   -2.2130 H   0  0  0  0  0  0  0  0  0  0  0  0
    1.7028    1.7394   -3.8321 H   0  0  0  0  0  0  0  0  0  0  0  0
  1  2  2  0  0  0  0
  1 10  1  0  0  0  0
  2  8  1  0  0  0  0
  2  9  1  0  0  0  0
  3  4  1  0  0  0  0
  3  9  2  0  0  0  0
  3 10  1  0  0  0  0
  4  5  2  0  0  0  0
  5  6  1  0  0  0  0
  6  7  2  0  0  0  0
  7 10  1  0  0  0  0
  8 11  1  0  0  0  0
  1 12  1  0  0  0  0
  4 13  1  0  0  0  0
  5 14  1  0  0  0  0
  6 15  1  0  0  0  0
  7 16  1  0  0  0  0
  8 17  1  0  0  0  0
  8 18  1  0  0  0  0
 11 19  1  0  0  0  0
M  END
$$$$
frag.vs.273
  -OEChem-01121112263D

 22 23  0     0  0  0  0  0  0999 V2000
    1.8851   -1.0363   -0.1124 C   0  0  0  0  0  0  0  0  0  0  0  0
    0.8066   -0.4630    0.5610 C   0  0  0  0  0  0  0  0  0  0  0  0
    2.9210   -1.6309    0.6081 C   0  0  0  0  0  0  0  0  0  0  0  0
    0.7638   -0.4841    1.9551 C   0  0  0  0  0  0  0  0  0  0  0  0
    0.9928   -1.1137    6.1138 C   0  0  0  0  0  0  0  0  0  0  0  0
    2.3989   -1.0848    6.0500 C   0  0  0  0  0  0  0  0  0  0  0  0
    0.5895   -1.1148    4.8009 C   0  0  0  0  0  0  0  0  0  0  0  0
    2.8783   -1.6520    2.0022 C   0  0  0  0  0  0  0  0  0  0  0  0
    1.7997   -1.0786    2.6757 C   0  0  0  0  0  0  0  0  0  0  0  0
    3.9799   -2.2834    2.7197 C   0  0  0  0  0  0  0  0  0  0  0  0
    2.8579   -1.0690    4.7958 N   0  0  0  0  0  0  0  0  0  0  0  0
    1.7339   -1.0880    4.0593 N   0  0  0  0  0  0  0  0  0  0  0  0
    3.8735   -3.2456    3.4834 O   0  0  0  0  0  0  0  0  0  0  0  0
    5.1750   -1.6908    2.4560 O   0  0  0  0  0  0  0  0  0  0  0  0
    1.9187   -1.0200   -1.1979 H   0  0  0  0  0  0  0  0  0  0  0  0
   -0.0000   -0.0005   -0.0003 H   0  0  0  0  0  0  0  0  0  0  0  0
    3.7557   -2.0747    0.0714 H   0  0  0  0  0  0  0  0  0  0  0  0
   -0.0837   -0.0328    2.4658 H   0  0  0  0  0  0  0  0  0  0  0  0
    0.3601   -1.1318    6.9888 H   0  0  0  0  0  0  0  0  0  0  0  0
    3.1086   -1.0749    6.8649 H   0  0  0  0  0  0  0  0  0  0  0  0
   -0.3939   -1.1337    4.3500 H   0  0  0  0  0  0  0  0  0  0  0  0
    5.9229   -2.1091    2.9334 H   0  0  0  0  0  0  0  0  0  0  0  0
  1  2  1  0  0  0  0
  1  3  2  0  0  0  0
  2  4  2  0  0  0  0
  3  8  1  0  0  0  0
  4  9  1  0  0  0  0
  5  6  1  0  0  0  0
  5  7  2  0  0  0  0
  6 11  2  0  0  0  0
  7 12  1  0  0  0  0
  8  9  2  0  0  0  0
  8 10  1  0  0  0  0
  9 12  1  0  0  0  0
 10 13  2  0  0  0  0
 10 14  1  0  0  0  0
 11 12  1  0  0  0  0
  1 15  1  0  0  0  0
  2 16  1  0  0  0  0
  3 17  1  0  0  0  0
  4 18  1  0  0  0  0
  5 19  1  0  0  0  0
  6 20  1  0  0  0  0
  7 21  1  0  0  0  0
 14 22  1  0  0  0  0
M  END
$$$$
frag.vs.274
  -OEChem-01121112263D

 24 25  0     0  0  0  0  0  0999 V2000
    1.8851   -1.0363   -0.1124 C   0  0  0  0  0  0  0  0  0  0  0  0
    0.8066   -0.4630    0.5610 C   0  0  0  0  0  0  0  0  0  0  0  0
    2.9210   -1.6309    0.6081 C   0  0  0  0  0  0  0  0  0  0  0  0
    0.7638   -0.4841    1.9551 C   0  0  0  0  0  0  0  0  0  0  0  0
    1.0026   -1.1129    6.1156 C   0  0  0  0  0  0  0  0  0  0  0  0
    2.4084   -1.0852    6.0478 C   0  0  0  0  0  0  0  0  0  0  0  0
    0.5955   -1.1138    4.8038 C   0  0  0  0  0  0  0  0  0  0  0  0
    2.8783   -1.6520    2.0022 C   0  0  0  0  0  0  0  0  0  0  0  0
    1.7997   -1.0786    2.6757 C   0  0  0  0  0  0  0  0  0  0  0  0
    4.0043   -2.2967    2.7449 C   0  0  0  0  0  0  0  0  0  0  0  0
    2.8639   -1.0698    4.7923 N   0  0  0  0  0  0  0  0  0  0  0  0
    1.7378   -1.0879    4.0590 N   0  0  0  0  0  0  0  0  0  0  0  0
    3.5577   -3.3894    3.5688 N   0  0  0  0  0  0  0  0  0  0  0  0
    1.9182   -1.0203   -1.1979 H   0  0  0  0  0  0  0  0  0  0  0  0
    0.0001    0.0001   -0.0000 H   0  0  0  0  0  0  0  0  0  0  0  0
    3.7569   -2.0744    0.0736 H   0  0  0  0  0  0  0  0  0  0  0  0
   -0.0838   -0.0324    2.4647 H   0  0  0  0  0  0  0  0  0  0  0  0
    0.3723   -1.1306    6.9924 H   0  0  0  0  0  0  0  0  0  0  0  0
    3.1205   -1.0758    6.8607 H   0  0  0  0  0  0  0  0  0  0  0  0
   -0.3892   -1.1320    4.3557 H   0  0  0  0  0  0  0  0  0  0  0  0
    4.7581   -2.6901    2.0507 H   0  0  0  0  0  0  0  0  0  0  0  0
    4.5150   -1.5780    3.3982 H   0  0  0  0  0  0  0  0  0  0  0  0
    4.0978   -3.6442    4.3795 H   0  0  0  0  0  0  0  0  0  0  0  0
    2.8414   -4.0050    3.2198 H   0  0  0  0  0  0  0  0  0  0  0  0
  1  2  1  0  0  0  0
  1  3  2  0  0  0  0
  2  4  2  0  0  0  0
  3  8  1  0  0  0  0
  4  9  1  0  0  0  0
  5  6  1  0  0  0  0
  5  7  2  0  0  0  0
  6 11  2  0  0  0  0
  7 12  1  0  0  0  0
  8  9  2  0  0  0  0
  8 10  1  0  0  0  0
  9 12  1  0  0  0  0
 10 13  1  0  0  0  0
 11 12  1  0  0  0  0
  1 14  1  0  0  0  0
  2 15  1  0  0  0  0
  3 16  1  0  0  0  0
  4 17  1  0  0  0  0
  5 18  1  0  0  0  0
  6 19  1  0  0  0  0
  7 20  1  0  0  0  0
 10 21  1  0  0  0  0
 10 22  1  0  0  0  0
 13 23  1  0  0  0  0
 13 24  1  0  0  0  0
M  END
$$$$
frag.vs.275
  -OEChem-01121112263D

 23 24  0     0  0  0  0  0  0999 V2000
    1.8851   -1.0363   -0.1124 C   0  0  0  0  0  0  0  0  0  0  0  0
    0.8066   -0.4630    0.5610 C   0  0  0  0  0  0  0  0  0  0  0  0
    2.9210   -1.6309    0.6081 C   0  0  0  0  0  0  0  0  0  0  0  0
    0.7638   -0.4841    1.9551 C   0  0  0  0  0  0  0  0  0  0  0  0
    1.3139   -0.5510    6.1333 C   0  0  0  0  0  0  0  0  0  0  0  0
    2.0433   -1.7503    6.0270 C   0  0  0  0  0  0  0  0  0  0  0  0
    1.1308   -0.1441    4.8343 C   0  0  0  0  0  0  0  0  0  0  0  0
    2.8783   -1.6520    2.0022 C   0  0  0  0  0  0  0  0  0  0  0  0
    1.7997   -1.0786    2.6757 C   0  0  0  0  0  0  0  0  0  0  0  0
    4.0043   -2.2967    2.7449 C   0  0  0  0  0  0  0  0  0  0  0  0
    2.3056   -2.0838    4.7605 N   0  0  0  0  0  0  0  0  0  0  0  0
    1.7378   -1.0879    4.0590 N   0  0  0  0  0  0  0  0  0  0  0  0
    5.1032   -2.4805    1.8628 O   0  0  0  0  0  0  0  0  0  0  0  0
    1.9182   -1.0203   -1.1979 H   0  0  0  0  0  0  0  0  0  0  0  0
    0.0001    0.0001   -0.0000 H   0  0  0  0  0  0  0  0  0  0  0  0
    3.7569   -2.0744    0.0736 H   0  0  0  0  0  0  0  0  0  0  0  0
   -0.0838   -0.0324    2.4647 H   0  0  0  0  0  0  0  0  0  0  0  0
    0.9684   -0.0515    7.0263 H   0  0  0  0  0  0  0  0  0  0  0  0
    2.3948   -2.3957    6.8194 H   0  0  0  0  0  0  0  0  0  0  0  0
    0.6292    0.7174    4.4137 H   0  0  0  0  0  0  0  0  0  0  0  0
    4.3293   -1.6767    3.5900 H   0  0  0  0  0  0  0  0  0  0  0  0
    3.7031   -3.2727    3.1458 H   0  0  0  0  0  0  0  0  0  0  0  0
    5.8104   -2.8994    2.3797 H   0  0  0  0  0  0  0  0  0  0  0  0
  1  2  1  0  0  0  0
  1  3  2  0  0  0  0
  2  4  2  0  0  0  0
  3  8  1  0  0  0  0
  4  9  1  0  0  0  0
  5  6  1  0  0  0  0
  5  7  2  0  0  0  0
  6 11  2  0  0  0  0
  7 12  1  0  0  0  0
  8  9  2  0  0  0  0
  8 10  1  0  0  0  0
  9 12  1  0  0  0  0
 10 13  1  0  0  0  0
 11 12  1  0  0  0  0
  1 14  1  0  0  0  0
  2 15  1  0  0  0  0
  3 16  1  0  0  0  0
  4 17  1  0  0  0  0
  5 18  1  0  0  0  0
  6 19  1  0  0  0  0
  7 20  1  0  0  0  0
 10 21  1  0  0  0  0
 10 22  1  0  0  0  0
 13 23  1  0  0  0  0
M  END
$$$$
frag.vs.276
  -OEChem-01121112263D

 26 27  0     0  0  0  0  0  0999 V2000
   -3.0800   -0.6868   -0.9326 C   0  0  0  0  0  0  0  0  0  0  0  0
   -3.1234    0.2932    0.0311 C   0  0  0  0  0  0  0  0  0  0  0  0
   -5.0547    0.1231   -1.0495 C   0  0  0  0  0  0  0  0  0  0  0  0
   -6.4058    0.4976   -1.3095 C   0  0  0  0  0  0  0  0  0  0  0  0
   -6.9758    1.4820   -0.5881 C   0  0  0  0  0  0  0  0  0  0  0  0
   -6.2453    2.1801    0.4579 C   0  0  0  0  0  0  0  0  0  0  0  0
   -4.9723    1.8333    0.7084 C   0  0  0  0  0  0  0  0  0  0  0  0
   -1.9573   -1.5691   -1.2894 C   0  0  0  0  0  0  0  0  0  0  0  0
   -0.5154    2.4642    1.5788 C   0  0  0  0  0  0  0  0  0  0  0  0
   -2.0985    0.7606    0.9845 C   0  0  0  0  0  0  0  0  0  0  0  0
   -4.2758   -0.7873   -1.5974 N   0  0  0  0  0  0  0  0  0  0  0  0
   -4.3895    0.8151   -0.0409 N   0  0  0  0  0  0  0  0  0  0  0  0
   -1.5158    2.0303    0.6077 N   0  0  0  0  0  0  0  0  0  0  0  0
   -6.9605   -0.0159   -2.0868 H   0  0  0  0  0  0  0  0  0  0  0  0
   -8.0023    1.7807   -0.7714 H   0  0  0  0  0  0  0  0  0  0  0  0
   -6.7446    2.9650    1.0127 H   0  0  0  0  0  0  0  0  0  0  0  0
   -4.3780    2.3166    1.4745 H   0  0  0  0  0  0  0  0  0  0  0  0
   -1.9755   -2.5012   -0.6982 H   0  0  0  0  0  0  0  0  0  0  0  0
   -1.9720   -1.8534   -2.3571 H   0  0  0  0  0  0  0  0  0  0  0  0
   -0.9771   -1.0878   -1.1195 H   0  0  0  0  0  0  0  0  0  0  0  0
   -0.9694    2.5603    2.5685 H   0  0  0  0  0  0  0  0  0  0  0  0
   -0.1000    3.4324    1.2866 H   0  0  0  0  0  0  0  0  0  0  0  0
    0.2983    1.7361    1.6341 H   0  0  0  0  0  0  0  0  0  0  0  0
   -2.5103    0.8888    2.0016 H   0  0  0  0  0  0  0  0  0  0  0  0
   -1.2619    0.0463    1.0832 H   0  0  0  0  0  0  0  0  0  0  0  0
   -1.0699    1.9471   -0.3091 H   0  0  0  0  0  0  0  0  0  0  0  0
  1  2  2  0  0  0  0
  1  8  1  0  0  0  0
  1 11  1  0  0  0  0
  2 10  1  0  0  0  0
  2 12  1  0  0  0  0
  3  4  1  0  0  0  0
  3 11  2  0  0  0  0
  3 12  1  0  0  0  0
  4  5  2  0  0  0  0
  5  6  1  0  0  0  0
  6  7  2  0  0  0  0
  7 12  1  0  0  0  0
  9 13  1  0  0  0  0
 10 13  1  0  0  0  0
  4 14  1  0  0  0  0
  5 15  1  0  0  0  0
  6 16  1  0  0  0  0
  7 17  1  0  0  0  0
  8 18  1  0  0  0  0
  8 19  1  0  0  0  0
  8 20  1  0  0  0  0
  9 21  1  0  0  0  0
  9 22  1  0  0  0  0
  9 23  1  0  0  0  0
 10 24  1  0  0  0  0
 10 25  1  0  0  0  0
 13 26  1  0  0  0  0
M  END
$$$$
frag.vs.277_0
  -OEChem-01121112263D

 33 33  0     1  0  0  0  0  0999 V2000
    1.0784   -0.0963   -0.3687 C   0  0  0  0  0  0  0  0  0  0  0  0
   -0.4642    0.5005   -3.4545 C   0  0  0  0  0  0  0  0  0  0  0  0
   -0.3999   -1.8053   -2.5448 C   0  0  0  0  0  0  0  0  0  0  0  0
    0.5739   -2.9000   -2.9555 C   0  0  0  0  0  0  0  0  0  0  0  0
    2.5213   -1.1582   -2.1271 C   0  0  0  0  0  0  0  0  0  0  0  0
    1.3814   -0.1776   -1.8575 C   0  0  1  0  0  0  0  0  0  0  0  0
   -1.8094    3.0144   -3.7128 C   0  0  0  0  0  0  0  0  0  0  0  0
    0.4718    3.9828   -4.1218 C   0  0  0  0  0  0  0  0  0  0  0  0
   -0.4651    2.2759   -5.7083 C   0  0  0  0  0  0  0  0  0  0  0  0
   -0.4069    2.7408   -4.2539 C   0  0  0  0  0  0  0  0  0  0  0  0
    0.1795   -0.4623   -2.6627 N   0  0  0  0  0  0  0  0  0  0  0  0
    1.8642   -0.3779    0.5238 O   0  0  0  0  0  0  0  0  0  0  0  0
   -1.5067    0.3024   -4.0764 O   0  0  0  0  0  0  0  0  0  0  0  0
   -0.1911    0.3310   -0.1612 O   0  0  0  0  0  0  0  0  0  0  0  0
    0.1908    1.7037   -3.4672 O   0  0  0  0  0  0  0  0  0  0  0  0
    2.0403   -2.8961   -1.8863 S   0  0  0  0  0  0  0  0  0  0  0  0
   -1.2927   -1.8811   -3.1747 H   0  0  0  0  0  0  0  0  0  0  0  0
   -0.7405   -1.9419   -1.5112 H   0  0  0  0  0  0  0  0  0  0  0  0
    0.0919   -3.8791   -2.8752 H   0  0  0  0  0  0  0  0  0  0  0  0
    0.8949   -2.7689   -3.9943 H   0  0  0  0  0  0  0  0  0  0  0  0
    2.8750   -1.0503   -3.1584 H   0  0  0  0  0  0  0  0  0  0  0  0
    3.3690   -0.9514   -1.4653 H   0  0  0  0  0  0  0  0  0  0  0  0
    1.7807    0.8205   -2.1059 H   0  0  0  0  0  0  0  0  0  0  0  0
   -2.4433    2.1253   -3.8058 H   0  0  0  0  0  0  0  0  0  0  0  0
   -1.7843    3.3150   -2.6603 H   0  0  0  0  0  0  0  0  0  0  0  0
   -2.3025    3.8070   -4.2873 H   0  0  0  0  0  0  0  0  0  0  0  0
    1.4791    3.7910   -4.5088 H   0  0  0  0  0  0  0  0  0  0  0  0
    0.5939    4.2645   -3.0696 H   0  0  0  0  0  0  0  0  0  0  0  0
    0.0494    4.8360   -4.6624 H   0  0  0  0  0  0  0  0  0  0  0  0
    0.5409    2.0796   -6.0966 H   0  0  0  0  0  0  0  0  0  0  0  0
   -1.0614    1.3642   -5.8167 H   0  0  0  0  0  0  0  0  0  0  0  0
   -0.8975    3.0531   -6.3488 H   0  0  0  0  0  0  0  0  0  0  0  0
   -0.4068    0.3884    0.7940 H   0  0  0  0  0  0  0  0  0  0  0  0
  1  6  1  0  0  0  0
  1 12  2  0  0  0  0
  1 14  1  0  0  0  0
  2 11  1  0  0  0  0
  2 13  2  0  0  0  0
  2 15  1  0  0  0  0
  3  4  1  0  0  0  0
  3 11  1  0  0  0  0
  4 16  1  0  0  0  0
  5  6  1  0  0  0  0
  5 16  1  0  0  0  0
  6 11  1  0  0  0  0
  7 10  1  0  0  0  0
  8 10  1  0  0  0  0
  9 10  1  0  0  0  0
 10 15  1  0  0  0  0
  3 17  1  0  0  0  0
  3 18  1  0  0  0  0
  4 19  1  0  0  0  0
  4 20  1  0  0  0  0
  5 21  1  0  0  0  0
  5 22  1  0  0  0  0
  6 23  1  0  0  0  0
  7 24  1  0  0  0  0
  7 25  1  0  0  0  0
  7 26  1  0  0  0  0
  8 27  1  0  0  0  0
  8 28  1  0  0  0  0
  8 29  1  0  0  0  0
  9 30  1  0  0  0  0
  9 31  1  0  0  0  0
  9 32  1  0  0  0  0
 14 33  1  0  0  0  0
M  END
$$$$
frag.vs.277_1
  -OEChem-01121112263D

 33 33  0     1  0  0  0  0  0999 V2000
    0.9905   -0.5453   -0.1735 C   0  0  0  0  0  0  0  0  0  0  0  0
    3.1605   -2.8305   -1.6809 C   0  0  0  0  0  0  0  0  0  0  0  0
    2.8080   -2.9272    0.7714 C   0  0  0  0  0  0  0  0  0  0  0  0
    1.8905   -3.8864    1.5153 C   0  0  0  0  0  0  0  0  0  0  0  0
   -0.1074   -2.7953   -0.0089 C   0  0  0  0  0  0  0  0  0  0  0  0
    0.9946   -1.9792   -0.6820 C   0  0  2  0  0  0  0  0  0  0  0  0
    3.7307   -4.1621   -4.1505 C   0  0  0  0  0  0  0  0  0  0  0  0
    2.5282   -2.2480   -5.2459 C   0  0  0  0  0  0  0  0  0  0  0  0
    4.6252   -1.8197   -3.9316 C   0  0  0  0  0  0  0  0  0  0  0  0
    3.3685   -2.6813   -4.0465 C   0  0  0  0  0  0  0  0  0  0  0  0
    2.3227   -2.6111   -0.5770 N   0  0  0  0  0  0  0  0  0  0  0  0
    0.0282    0.0202    0.3241 O   0  0  0  0  0  0  0  0  0  0  0  0
    4.3029   -3.2799   -1.6062 O   0  0  0  0  0  0  0  0  0  0  0  0
    2.2058    0.0285   -0.3495 O   0  0  0  0  0  0  0  0  0  0  0  0
    2.5739   -2.4879   -2.8706 O   0  0  0  0  0  0  0  0  0  0  0  0
    0.2416   -3.1630    1.7380 S   0  0  0  0  0  0  0  0  0  0  0  0
    2.9286   -1.9855    1.3204 H   0  0  0  0  0  0  0  0  0  0  0  0
    3.8048   -3.3771    0.7110 H   0  0  0  0  0  0  0  0  0  0  0  0
    1.7902   -4.8323    0.9725 H   0  0  0  0  0  0  0  0  0  0  0  0
    2.3047   -4.1102    2.5032 H   0  0  0  0  0  0  0  0  0  0  0  0
   -1.0618   -2.2602   -0.0532 H   0  0  0  0  0  0  0  0  0  0  0  0
   -0.2410   -3.7497   -0.5303 H   0  0  0  0  0  0  0  0  0  0  0  0
    0.6957   -1.8906   -1.7408 H   0  0  0  0  0  0  0  0  0  0  0  0
    4.3338   -4.4769   -3.2914 H   0  0  0  0  0  0  0  0  0  0  0  0
    2.8374   -4.7934   -4.1984 H   0  0  0  0  0  0  0  0  0  0  0  0
    4.3385   -4.3543   -5.0421 H   0  0  0  0  0  0  0  0  0  0  0  0
    2.2661   -1.1862   -5.1755 H   0  0  0  0  0  0  0  0  0  0  0  0
    1.5809   -2.7984   -5.2781 H   0  0  0  0  0  0  0  0  0  0  0  0
    3.0570   -2.4126   -6.1903 H   0  0  0  0  0  0  0  0  0  0  0  0
    4.3657   -0.7575   -3.8570 H   0  0  0  0  0  0  0  0  0  0  0  0
    5.2220   -2.0920   -3.0551 H   0  0  0  0  0  0  0  0  0  0  0  0
    5.2515   -1.9230   -4.8251 H   0  0  0  0  0  0  0  0  0  0  0  0
    2.2231    0.9556   -0.0291 H   0  0  0  0  0  0  0  0  0  0  0  0
  1  6  1  0  0  0  0
  1 12  2  0  0  0  0
  1 14  1  0  0  0  0
  2 11  1  0  0  0  0
  2 13  2  0  0  0  0
  2 15  1  0  0  0  0
  3  4  1  0  0  0  0
  3 11  1  0  0  0  0
  4 16  1  0  0  0  0
  5  6  1  0  0  0  0
  5 16  1  0  0  0  0
  6 11  1  0  0  0  0
  7 10  1  0  0  0  0
  8 10  1  0  0  0  0
  9 10  1  0  0  0  0
 10 15  1  0  0  0  0
  3 17  1  0  0  0  0
  3 18  1  0  0  0  0
  4 19  1  0  0  0  0
  4 20  1  0  0  0  0
  5 21  1  0  0  0  0
  5 22  1  0  0  0  0
  6 23  1  0  0  0  0
  7 24  1  0  0  0  0
  7 25  1  0  0  0  0
  7 26  1  0  0  0  0
  8 27  1  0  0  0  0
  8 28  1  0  0  0  0
  8 29  1  0  0  0  0
  9 30  1  0  0  0  0
  9 31  1  0  0  0  0
  9 32  1  0  0  0  0
 14 33  1  0  0  0  0
M  END
$$$$
frag.vs.278
  -OEChem-01121112263D

 29 30  0     0  0  0  0  0  0999 V2000
    0.2592   -9.4317    4.0468 C   0  0  0  0  0  0  0  0  0  0  0  0
   -0.7508   -9.9186    3.2247 C   0  0  0  0  0  0  0  0  0  0  0  0
    0.7094   -5.1030    3.3823 C   0  0  0  0  0  0  0  0  0  0  0  0
   -1.5267   -5.0937    4.2970 C   0  0  0  0  0  0  0  0  0  0  0  0
    0.7780   -3.7183    3.5359 C   0  0  0  0  0  0  0  0  0  0  0  0
   -1.4581   -3.7090    4.4507 C   0  0  0  0  0  0  0  0  0  0  0  0
    0.3867   -8.0614    4.2450 C   0  0  0  0  0  0  0  0  0  0  0  0
   -1.6009   -9.0010    2.6287 C   0  0  0  0  0  0  0  0  0  0  0  0
   -0.4430   -5.7907    3.7628 C   0  0  0  0  0  0  0  0  0  0  0  0
   -0.3057   -3.0213    4.0701 C   0  0  0  0  0  0  0  0  0  0  0  0
   -0.5142   -7.2268    3.6032 C   0  0  0  0  0  0  0  0  0  0  0  0
    0.6565    0.3006    5.4910 C   0  0  0  0  0  0  0  0  0  0  0  0
   -0.2325   -1.5408    4.2341 C   0  0  0  0  0  0  0  0  0  0  0  0
   -1.5082   -7.6628    2.7974 N   0  0  0  0  0  0  0  0  0  0  0  0
    0.5888   -1.1536    5.3530 N   0  0  0  0  0  0  0  0  0  0  0  0
    0.9467  -10.1186    4.5311 H   0  0  0  0  0  0  0  0  0  0  0  0
   -0.8676  -10.9825    3.0535 H   0  0  0  0  0  0  0  0  0  0  0  0
    1.5623   -5.6320    2.9637 H   0  0  0  0  0  0  0  0  0  0  0  0
   -2.4317   -5.6156    4.5989 H   0  0  0  0  0  0  0  0  0  0  0  0
    1.6794   -3.1906    3.2357 H   0  0  0  0  0  0  0  0  0  0  0  0
   -2.3070   -3.1740    4.8683 H   0  0  0  0  0  0  0  0  0  0  0  0
    1.1715   -7.6729    4.8862 H   0  0  0  0  0  0  0  0  0  0  0  0
   -2.4053   -9.3288    1.9784 H   0  0  0  0  0  0  0  0  0  0  0  0
    1.0602    0.7463    4.5782 H   0  0  0  0  0  0  0  0  0  0  0  0
    1.3031    0.5709    6.3303 H   0  0  0  0  0  0  0  0  0  0  0  0
   -0.3411    0.7101    5.6712 H   0  0  0  0  0  0  0  0  0  0  0  0
    0.1856   -1.0631    3.3370 H   0  0  0  0  0  0  0  0  0  0  0  0
   -1.2278   -1.1031    4.3917 H   0  0  0  0  0  0  0  0  0  0  0  0
    0.2080   -1.5448    6.2204 H   0  0  0  0  0  0  0  0  0  0  0  0
  1  2  1  0  0  0  0
  1  7  2  0  0  0  0
  2  8  2  0  0  0  0
  3  5  2  0  0  0  0
  3  9  1  0  0  0  0
  4  6  1  0  0  0  0
  4  9  2  0  0  0  0
  5 10  1  0  0  0  0
  6 10  2  0  0  0  0
  7 11  1  0  0  0  0
  8 14  1  0  0  0  0
  9 11  1  0  0  0  0
 10 13  1  0  0  0  0
 11 14  2  0  0  0  0
 12 15  1  0  0  0  0
 13 15  1  0  0  0  0
  1 16  1  0  0  0  0
  2 17  1  0  0  0  0
  3 18  1  0  0  0  0
  4 19  1  0  0  0  0
  5 20  1  0  0  0  0
  6 21  1  0  0  0  0
  7 22  1  0  0  0  0
  8 23  1  0  0  0  0
 12 24  1  0  0  0  0
 12 25  1  0  0  0  0
 12 26  1  0  0  0  0
 13 27  1  0  0  0  0
 13 28  1  0  0  0  0
 15 29  1  0  0  0  0
M  END
$$$$
frag.vs.279
  -OEChem-01121112263D

 25 26  0     0  0  0  0  0  0999 V2000
    5.9015   -2.1042   -1.5652 C   0  0  0  0  0  0  0  0  0  0  0  0
    6.1198   -3.4608   -1.3523 C   0  0  0  0  0  0  0  0  0  0  0  0
    1.8851   -1.0363   -0.1124 C   0  0  0  0  0  0  0  0  0  0  0  0
    2.8783   -1.6520    2.0022 C   0  0  0  0  0  0  0  0  0  0  0  0
    0.8066   -0.4630    0.5610 C   0  0  0  0  0  0  0  0  0  0  0  0
    1.7997   -1.0786    2.6757 C   0  0  0  0  0  0  0  0  0  0  0  0
    4.8437   -1.4672   -0.9259 C   0  0  0  0  0  0  0  0  0  0  0  0
    5.2587   -4.1299   -0.4976 C   0  0  0  0  0  0  0  0  0  0  0  0
    2.9210   -1.6309    0.6081 C   0  0  0  0  0  0  0  0  0  0  0  0
    0.7638   -0.4841    1.9551 C   0  0  0  0  0  0  0  0  0  0  0  0
    4.0396   -2.2257   -0.0904 C   0  0  0  0  0  0  0  0  0  0  0  0
   -0.3895    0.1286    2.6751 C   0  0  0  0  0  0  0  0  0  0  0  0
    4.2205   -3.5453    0.1411 N   0  0  0  0  0  0  0  0  0  0  0  0
   -1.2388   -0.9001    3.1686 O   0  0  0  0  0  0  0  0  0  0  0  0
    6.5537   -1.5446   -2.2290 H   0  0  0  0  0  0  0  0  0  0  0  0
    6.9364   -3.9788   -1.8419 H   0  0  0  0  0  0  0  0  0  0  0  0
    1.9036   -1.0124   -1.1995 H   0  0  0  0  0  0  0  0  0  0  0  0
    3.6784   -2.1111    2.5780 H   0  0  0  0  0  0  0  0  0  0  0  0
    0.0034   -0.0030   -0.0085 H   0  0  0  0  0  0  0  0  0  0  0  0
    1.7748   -1.0991    3.7621 H   0  0  0  0  0  0  0  0  0  0  0  0
    4.6670   -0.4084   -1.0854 H   0  0  0  0  0  0  0  0  0  0  0  0
    5.3854   -5.1888   -0.2975 H   0  0  0  0  0  0  0  0  0  0  0  0
   -0.0531    0.7423    3.5221 H   0  0  0  0  0  0  0  0  0  0  0  0
   -0.9730    0.7789    2.0091 H   0  0  0  0  0  0  0  0  0  0  0  0
   -1.9721   -0.4602    3.6277 H   0  0  0  0  0  0  0  0  0  0  0  0
  1  2  1  0  0  0  0
  1  7  2  0  0  0  0
  2  8  2  0  0  0  0
  3  5  2  0  0  0  0
  3  9  1  0  0  0  0
  4  6  1  0  0  0  0
  4  9  2  0  0  0  0
  5 10  1  0  0  0  0
  6 10  2  0  0  0  0
  7 11  1  0  0  0  0
  8 13  1  0  0  0  0
  9 11  1  0  0  0  0
 10 12  1  0  0  0  0
 11 13  2  0  0  0  0
 12 14  1  0  0  0  0
  1 15  1  0  0  0  0
  2 16  1  0  0  0  0
  3 17  1  0  0  0  0
  4 18  1  0  0  0  0
  5 19  1  0  0  0  0
  6 20  1  0  0  0  0
  7 21  1  0  0  0  0
  8 22  1  0  0  0  0
 12 23  1  0  0  0  0
 12 24  1  0  0  0  0
 14 25  1  0  0  0  0
M  END
$$$$
frag.vs.280
  -OEChem-01121112263D

 24 25  0     0  0  0  0  0  0999 V2000
   -1.2854    1.6766    4.1831 C   0  0  0  0  0  0  0  0  0  0  0  0
    1.8851   -1.0363   -0.1124 C   0  0  0  0  0  0  0  0  0  0  0  0
   -2.5428    1.1498    3.9100 C   0  0  0  0  0  0  0  0  0  0  0  0
    0.8066   -0.4630    0.5610 C   0  0  0  0  0  0  0  0  0  0  0  0
    2.9210   -1.6309    0.6081 C   0  0  0  0  0  0  0  0  0  0  0  0
   -0.1653    1.1528    3.5472 C   0  0  0  0  0  0  0  0  0  0  0  0
    1.7997   -1.0786    2.6757 C   0  0  0  0  0  0  0  0  0  0  0  0
   -2.6259    0.1079    3.0004 C   0  0  0  0  0  0  0  0  0  0  0  0
    0.7638   -0.4841    1.9551 C   0  0  0  0  0  0  0  0  0  0  0  0
    2.8783   -1.6520    2.0022 C   0  0  0  0  0  0  0  0  0  0  0  0
   -0.3548    0.1107    2.6540 C   0  0  0  0  0  0  0  0  0  0  0  0
    3.9595   -2.2706    2.7529 C   0  0  0  0  0  0  0  0  0  0  0  0
   -1.5605   -0.4271    2.3631 N   0  0  0  0  0  0  0  0  0  0  0  0
    4.0247   -2.3458    3.9842 O   0  0  0  0  0  0  0  0  0  0  0  0
    4.9295   -2.7796    1.9447 O   0  0  0  0  0  0  0  0  0  0  0  0
   -1.1782    2.4929    4.8910 H   0  0  0  0  0  0  0  0  0  0  0  0
    1.9184   -1.0197   -1.1979 H   0  0  0  0  0  0  0  0  0  0  0  0
   -3.4296    1.5404    4.3957 H   0  0  0  0  0  0  0  0  0  0  0  0
    0.0068   -0.0033   -0.0149 H   0  0  0  0  0  0  0  0  0  0  0  0
    3.7566   -2.0740    0.0726 H   0  0  0  0  0  0  0  0  0  0  0  0
    0.8198    1.5589    3.7535 H   0  0  0  0  0  0  0  0  0  0  0  0
    1.7698   -1.0962    3.7635 H   0  0  0  0  0  0  0  0  0  0  0  0
   -3.5833   -0.3385    2.7522 H   0  0  0  0  0  0  0  0  0  0  0  0
    5.6633   -3.2001    2.4417 H   0  0  0  0  0  0  0  0  0  0  0  0
  1  3  1  0  0  0  0
  1  6  2  0  0  0  0
  2  4  2  0  0  0  0
  2  5  1  0  0  0  0
  3  8  2  0  0  0  0
  4  9  1  0  0  0  0
  5 10  2  0  0  0  0
  6 11  1  0  0  0  0
  7  9  2  0  0  0  0
  7 10  1  0  0  0  0
  8 13  1  0  0  0  0
  9 11  1  0  0  0  0
 10 12  1  0  0  0  0
 11 13  2  0  0  0  0
 12 14  2  0  0  0  0
 12 15  1  0  0  0  0
  1 16  1  0  0  0  0
  2 17  1  0  0  0  0
  3 18  1  0  0  0  0
  4 19  1  0  0  0  0
  5 20  1  0  0  0  0
  6 21  1  0  0  0  0
  7 22  1  0  0  0  0
  8 23  1  0  0  0  0
 15 24  1  0  0  0  0
M  END
$$$$
frag.vs.281
  -OEChem-01121112263D

 27 28  0     0  0  0  0  0  0999 V2000
    3.2727   -2.0525    2.9278 C   0  0  0  0  0  0  0  0  0  0  0  0
    1.8740   -3.0956    1.2724 C   0  0  0  0  0  0  0  0  0  0  0  0
    2.3324   -1.0378    3.0048 C   0  0  0  0  0  0  0  0  0  0  0  0
    3.0317   -3.0974    2.0426 C   0  0  0  0  0  0  0  0  0  0  0  0
    0.9962   -2.0343    1.4237 C   0  0  0  0  0  0  0  0  0  0  0  0
    3.9874   -4.1867    1.9233 C   0  0  0  0  0  0  0  0  0  0  0  0
   -0.7487   -0.7573    0.2490 C   0  0  0  0  0  0  0  0  0  0  0  0
   -1.1193   -3.1528    0.7691 C   0  0  0  0  0  0  0  0  0  0  0  0
   -1.6486   -0.9498   -0.9663 C   0  0  0  0  0  0  0  0  0  0  0  0
   -2.0000   -3.2173   -0.4738 C   0  0  0  0  0  0  0  0  0  0  0  0
    1.1963   -1.0016    2.2729 N   0  0  0  0  0  0  0  0  0  0  0  0
   -0.1641   -2.0466    0.6428 N   0  0  0  0  0  0  0  0  0  0  0  0
    3.8732   -5.1607    1.1717 O   0  0  0  0  0  0  0  0  0  0  0  0
   -2.6269   -1.9569   -0.7084 O   0  0  0  0  0  0  0  0  0  0  0  0
    5.0613   -4.0297    2.7451 O   0  0  0  0  0  0  0  0  0  0  0  0
    4.1658   -2.0230    3.5428 H   0  0  0  0  0  0  0  0  0  0  0  0
    1.6679   -3.9031    0.5758 H   0  0  0  0  0  0  0  0  0  0  0  0
    2.4734   -0.1999    3.6795 H   0  0  0  0  0  0  0  0  0  0  0  0
    0.0372   -0.0311    0.0104 H   0  0  0  0  0  0  0  0  0  0  0  0
   -1.3406   -0.3624    1.0847 H   0  0  0  0  0  0  0  0  0  0  0  0
   -1.7468   -2.9866    1.6541 H   0  0  0  0  0  0  0  0  0  0  0  0
   -0.5946   -4.1073    0.8942 H   0  0  0  0  0  0  0  0  0  0  0  0
   -2.1762   -0.0173   -1.1906 H   0  0  0  0  0  0  0  0  0  0  0  0
   -1.0681   -1.2238   -1.8556 H   0  0  0  0  0  0  0  0  0  0  0  0
   -1.4198   -3.5051   -1.3589 H   0  0  0  0  0  0  0  0  0  0  0  0
   -2.7870   -3.9655   -0.3361 H   0  0  0  0  0  0  0  0  0  0  0  0
    5.7127   -4.7594    2.6714 H   0  0  0  0  0  0  0  0  0  0  0  0
  1  3  1  0  0  0  0
  1  4  2  0  0  0  0
  2  4  1  0  0  0  0
  2  5  2  0  0  0  0
  3 11  2  0  0  0  0
  4  6  1  0  0  0  0
  5 11  1  0  0  0  0
  5 12  1  0  0  0  0
  6 13  2  0  0  0  0
  6 15  1  0  0  0  0
  7  9  1  0  0  0  0
  7 12  1  0  0  0  0
  8 10  1  0  0  0  0
  8 12  1  0  0  0  0
  9 14  1  0  0  0  0
 10 14  1  0  0  0  0
  1 16  1  0  0  0  0
  2 17  1  0  0  0  0
  3 18  1  0  0  0  0
  7 19  1  0  0  0  0
  7 20  1  0  0  0  0
  8 21  1  0  0  0  0
  8 22  1  0  0  0  0
  9 23  1  0  0  0  0
  9 24  1  0  0  0  0
 10 25  1  0  0  0  0
 10 26  1  0  0  0  0
 15 27  1  0  0  0  0
M  END
$$$$
frag.vs.282
  -OEChem-01121112263D

 29 30  0     0  0  0  0  0  0999 V2000
    3.2412   -2.0461    2.9744 C   0  0  0  0  0  0  0  0  0  0  0  0
    1.0247   -2.8674    2.5305 C   0  0  0  0  0  0  0  0  0  0  0  0
    3.1136   -1.2499    1.8477 C   0  0  0  0  0  0  0  0  0  0  0  0
    2.1723   -2.8674    3.3155 C   0  0  0  0  0  0  0  0  0  0  0  0
    0.9962   -2.0343    1.4237 C   0  0  0  0  0  0  0  0  0  0  0  0
   -0.0366   -1.7633   -0.7933 C   0  0  0  0  0  0  0  0  0  0  0  0
   -1.4520   -1.6771    1.2403 C   0  0  0  0  0  0  0  0  0  0  0  0
   -1.2512   -2.3091   -1.5355 C   0  0  0  0  0  0  0  0  0  0  0  0
   -2.5913   -2.2269    0.3893 C   0  0  0  0  0  0  0  0  0  0  0  0
    2.2566   -3.7431    4.5190 C   0  0  0  0  0  0  0  0  0  0  0  0
    2.0147   -1.2228    1.0607 N   0  0  0  0  0  0  0  0  0  0  0  0
   -0.1641   -2.0466    0.6428 N   0  0  0  0  0  0  0  0  0  0  0  0
    1.4829   -3.2338    5.6231 N   0  0  0  0  0  0  0  0  0  0  0  0
   -2.4558   -1.7980   -0.9651 O   0  0  0  0  0  0  0  0  0  0  0  0
    4.1499   -2.0236    3.5662 H   0  0  0  0  0  0  0  0  0  0  0  0
    0.1810   -3.5033    2.7815 H   0  0  0  0  0  0  0  0  0  0  0  0
    3.9191   -0.5921    1.5388 H   0  0  0  0  0  0  0  0  0  0  0  0
    0.8746   -2.2179   -1.1996 H   0  0  0  0  0  0  0  0  0  0  0  0
    0.0252   -0.6773   -0.9399 H   0  0  0  0  0  0  0  0  0  0  0  0
   -1.5256   -0.5830    1.2876 H   0  0  0  0  0  0  0  0  0  0  0  0
   -1.5351   -2.0715    2.2599 H   0  0  0  0  0  0  0  0  0  0  0  0
   -1.2171   -1.9986   -2.5847 H   0  0  0  0  0  0  0  0  0  0  0  0
   -1.2740   -3.4054   -1.5154 H   0  0  0  0  0  0  0  0  0  0  0  0
   -2.6204   -3.3228    0.4224 H   0  0  0  0  0  0  0  0  0  0  0  0
   -3.5509   -1.8587    0.7659 H   0  0  0  0  0  0  0  0  0  0  0  0
    1.8899   -4.7558    4.2991 H   0  0  0  0  0  0  0  0  0  0  0  0
    3.2930   -3.8506    4.8682 H   0  0  0  0  0  0  0  0  0  0  0  0
    1.7490   -3.4814    6.5612 H   0  0  0  0  0  0  0  0  0  0  0  0
    0.5859   -2.8167    5.4392 H   0  0  0  0  0  0  0  0  0  0  0  0
  1  3  1  0  0  0  0
  1  4  2  0  0  0  0
  2  4  1  0  0  0  0
  2  5  2  0  0  0  0
  3 11  2  0  0  0  0
  4 10  1  0  0  0  0
  5 11  1  0  0  0  0
  5 12  1  0  0  0  0
  6  8  1  0  0  0  0
  6 12  1  0  0  0  0
  7  9  1  0  0  0  0
  7 12  1  0  0  0  0
  8 14  1  0  0  0  0
  9 14  1  0  0  0  0
 10 13  1  0  0  0  0
  1 15  1  0  0  0  0
  2 16  1  0  0  0  0
  3 17  1  0  0  0  0
  6 18  1  0  0  0  0
  6 19  1  0  0  0  0
  7 20  1  0  0  0  0
  7 21  1  0  0  0  0
  8 22  1  0  0  0  0
  8 23  1  0  0  0  0
  9 24  1  0  0  0  0
  9 25  1  0  0  0  0
 10 26  1  0  0  0  0
 10 27  1  0  0  0  0
 13 28  1  0  0  0  0
 13 29  1  0  0  0  0
M  END
$$$$
frag.vs.283
  -OEChem-01121112263D

 32 33  0     0  0  0  0  0  0999 V2000
    3.2438   -1.9702    2.9693 C   0  0  0  0  0  0  0  0  0  0  0  0
    1.1696   -0.9632    2.2853 C   0  0  0  0  0  0  0  0  0  0  0  0
    2.9775   -2.9964    2.0772 C   0  0  0  0  0  0  0  0  0  0  0  0
    2.3176   -0.9380    3.0694 C   0  0  0  0  0  0  0  0  0  0  0  0
    0.9962   -2.0343    1.4237 C   0  0  0  0  0  0  0  0  0  0  0  0
   -0.7286   -3.3480    0.2599 C   0  0  0  0  0  0  0  0  0  0  0  0
   -0.4242   -0.9517   -0.2983 C   0  0  0  0  0  0  0  0  0  0  0  0
   -2.1962   -3.1816   -0.1176 C   0  0  0  0  0  0  0  0  0  0  0  0
   -1.9081   -0.9134   -0.6465 C   0  0  0  0  0  0  0  0  0  0  0  0
    3.1919    2.4910    4.2758 C   0  0  0  0  0  0  0  0  0  0  0  0
    2.5558    0.1916    4.0126 C   0  0  0  0  0  0  0  0  0  0  0  0
    1.8736   -3.0552    1.2991 N   0  0  0  0  0  0  0  0  0  0  0  0
   -0.1641   -2.0466    0.6428 N   0  0  0  0  0  0  0  0  0  0  0  0
    2.9736    1.3930    3.3352 N   0  0  0  0  0  0  0  0  0  0  0  0
   -2.3415   -2.1847   -1.1289 O   0  0  0  0  0  0  0  0  0  0  0  0
    4.1486   -1.9795    3.5674 H   0  0  0  0  0  0  0  0  0  0  0  0
    0.4352   -0.1660    2.3514 H   0  0  0  0  0  0  0  0  0  0  0  0
    3.6682   -3.8251    1.9624 H   0  0  0  0  0  0  0  0  0  0  0  0
   -0.6423   -4.0664    1.0835 H   0  0  0  0  0  0  0  0  0  0  0  0
   -0.1712   -3.7410   -0.6001 H   0  0  0  0  0  0  0  0  0  0  0  0
    0.1619   -1.1160   -1.2116 H   0  0  0  0  0  0  0  0  0  0  0  0
   -0.1258    0.0110    0.1331 H   0  0  0  0  0  0  0  0  0  0  0  0
   -2.5879   -4.1236   -0.5143 H   0  0  0  0  0  0  0  0  0  0  0  0
   -2.8057   -2.9103    0.7530 H   0  0  0  0  0  0  0  0  0  0  0  0
   -2.5140   -0.6282    0.2220 H   0  0  0  0  0  0  0  0  0  0  0  0
   -2.0887   -0.1741   -1.4334 H   0  0  0  0  0  0  0  0  0  0  0  0
    2.2749    2.6947    4.8349 H   0  0  0  0  0  0  0  0  0  0  0  0
    3.4848    3.3968    3.7380 H   0  0  0  0  0  0  0  0  0  0  0  0
    3.9846    2.2313    4.9826 H   0  0  0  0  0  0  0  0  0  0  0  0
    1.6459    0.4329    4.5803 H   0  0  0  0  0  0  0  0  0  0  0  0
    3.3326   -0.0551    4.7497 H   0  0  0  0  0  0  0  0  0  0  0  0
    3.8465    1.2232    2.8256 H   0  0  0  0  0  0  0  0  0  0  0  0
  1  3  2  0  0  0  0
  1  4  1  0  0  0  0
  2  4  2  0  0  0  0
  2  5  1  0  0  0  0
  3 12  1  0  0  0  0
  4 11  1  0  0  0  0
  5 12  2  0  0  0  0
  5 13  1  0  0  0  0
  6  8  1  0  0  0  0
  6 13  1  0  0  0  0
  7  9  1  0  0  0  0
  7 13  1  0  0  0  0
  8 15  1  0  0  0  0
  9 15  1  0  0  0  0
 10 14  1  0  0  0  0
 11 14  1  0  0  0  0
  1 16  1  0  0  0  0
  2 17  1  0  0  0  0
  3 18  1  0  0  0  0
  6 19  1  0  0  0  0
  6 20  1  0  0  0  0
  7 21  1  0  0  0  0
  7 22  1  0  0  0  0
  8 23  1  0  0  0  0
  8 24  1  0  0  0  0
  9 25  1  0  0  0  0
  9 26  1  0  0  0  0
 10 27  1  0  0  0  0
 10 28  1  0  0  0  0
 10 29  1  0  0  0  0
 11 30  1  0  0  0  0
 11 31  1  0  0  0  0
 14 32  1  0  0  0  0
M  END
$$$$
frag.vs.284
  -OEChem-01121112263D

 28 29  0     0  0  0  0  0  0999 V2000
    3.2412   -2.0461    2.9744 C   0  0  0  0  0  0  0  0  0  0  0  0
    1.0247   -2.8674    2.5305 C   0  0  0  0  0  0  0  0  0  0  0  0
    3.1136   -1.2499    1.8477 C   0  0  0  0  0  0  0  0  0  0  0  0
    2.1723   -2.8674    3.3155 C   0  0  0  0  0  0  0  0  0  0  0  0
    0.9962   -2.0343    1.4237 C   0  0  0  0  0  0  0  0  0  0  0  0
   -0.0366   -1.7633   -0.7933 C   0  0  0  0  0  0  0  0  0  0  0  0
   -1.4520   -1.6771    1.2403 C   0  0  0  0  0  0  0  0  0  0  0  0
   -1.2512   -2.3091   -1.5355 C   0  0  0  0  0  0  0  0  0  0  0  0
   -2.5913   -2.2269    0.3893 C   0  0  0  0  0  0  0  0  0  0  0  0
    2.2566   -3.7431    4.5190 C   0  0  0  0  0  0  0  0  0  0  0  0
    2.0147   -1.2228    1.0607 N   0  0  0  0  0  0  0  0  0  0  0  0
   -0.1641   -2.0466    0.6428 N   0  0  0  0  0  0  0  0  0  0  0  0
   -2.4558   -1.7980   -0.9651 O   0  0  0  0  0  0  0  0  0  0  0  0
    1.4670   -3.1881    5.5640 O   0  0  0  0  0  0  0  0  0  0  0  0
    4.1499   -2.0236    3.5662 H   0  0  0  0  0  0  0  0  0  0  0  0
    0.1810   -3.5033    2.7815 H   0  0  0  0  0  0  0  0  0  0  0  0
    3.9191   -0.5921    1.5388 H   0  0  0  0  0  0  0  0  0  0  0  0
    0.8746   -2.2179   -1.1996 H   0  0  0  0  0  0  0  0  0  0  0  0
    0.0252   -0.6773   -0.9399 H   0  0  0  0  0  0  0  0  0  0  0  0
   -1.5256   -0.5830    1.2876 H   0  0  0  0  0  0  0  0  0  0  0  0
   -1.5351   -2.0715    2.2599 H   0  0  0  0  0  0  0  0  0  0  0  0
   -1.2171   -1.9986   -2.5847 H   0  0  0  0  0  0  0  0  0  0  0  0
   -1.2740   -3.4054   -1.5154 H   0  0  0  0  0  0  0  0  0  0  0  0
   -2.6204   -3.3228    0.4224 H   0  0  0  0  0  0  0  0  0  0  0  0
   -3.5509   -1.8587    0.7659 H   0  0  0  0  0  0  0  0  0  0  0  0
    1.8911   -4.7569    4.3042 H   0  0  0  0  0  0  0  0  0  0  0  0
    3.2932   -3.8356    4.8715 H   0  0  0  0  0  0  0  0  0  0  0  0
    1.5498   -3.7862    6.3239 H   0  0  0  0  0  0  0  0  0  0  0  0
  1  3  1  0  0  0  0
  1  4  2  0  0  0  0
  2  4  1  0  0  0  0
  2  5  2  0  0  0  0
  3 11  2  0  0  0  0
  4 10  1  0  0  0  0
  5 11  1  0  0  0  0
  5 12  1  0  0  0  0
  6  8  1  0  0  0  0
  6 12  1  0  0  0  0
  7  9  1  0  0  0  0
  7 12  1  0  0  0  0
  8 13  1  0  0  0  0
  9 13  1  0  0  0  0
 10 14  1  0  0  0  0
  1 15  1  0  0  0  0
  2 16  1  0  0  0  0
  3 17  1  0  0  0  0
  6 18  1  0  0  0  0
  6 19  1  0  0  0  0
  7 20  1  0  0  0  0
  7 21  1  0  0  0  0
  8 22  1  0  0  0  0
  8 23  1  0  0  0  0
  9 24  1  0  0  0  0
  9 25  1  0  0  0  0
 10 26  1  0  0  0  0
 10 27  1  0  0  0  0
 14 28  1  0  0  0  0
M  END
$$$$
frag.vs.285_0
  -OEChem-01121112263D

 24 24  0     1  0  0  0  0  0999 V2000
    0.1440    0.4967   -2.3982 C   0  0  0  0  0  0  0  0  0  0  0  0
    0.8237    0.7774    1.2268 C   0  0  0  0  0  0  0  0  0  0  0  0
   -0.3222    0.0315    1.9015 C   0  0  0  0  0  0  0  0  0  0  0  0
   -0.8512   -0.8814   -0.6207 C   0  0  0  0  0  0  0  0  0  0  0  0
    0.3556   -0.0317   -1.0122 C   0  0  2  0  0  0  0  0  0  0  0  0
    1.1419   -1.0704   -5.5505 C   0  0  0  0  0  0  0  0  0  0  0  0
    0.5247    0.0009   -4.6770 C   0  0  0  0  0  0  0  0  0  0  0  0
    0.5300    1.1450   -0.1600 N   0  0  0  0  0  0  0  0  0  0  0  0
   -0.4108    1.5579   -2.6496 O   0  0  0  0  0  0  0  0  0  0  0  0
    0.6597   -0.3816   -3.3046 O   0  0  0  0  0  0  0  0  0  0  0  0
   -0.6799   -1.5376    1.0627 S   0  0  0  0  0  0  0  0  0  0  0  0
    1.0144    1.7012    1.7853 H   0  0  0  0  0  0  0  0  0  0  0  0
    1.7539    0.1974    1.2766 H   0  0  0  0  0  0  0  0  0  0  0  0
   -0.0594   -0.1888    2.9411 H   0  0  0  0  0  0  0  0  0  0  0  0
   -1.2322    0.6413    1.9172 H   0  0  0  0  0  0  0  0  0  0  0  0
   -1.7839   -0.3080   -0.6815 H   0  0  0  0  0  0  0  0  0  0  0  0
   -0.9579   -1.7271   -1.3090 H   0  0  0  0  0  0  0  0  0  0  0  0
    1.2701   -0.6291   -1.0377 H   0  0  0  0  0  0  0  0  0  0  0  0
    2.2050   -1.1929   -5.3253 H   0  0  0  0  0  0  0  0  0  0  0  0
    0.6359   -2.0298   -5.4005 H   0  0  0  0  0  0  0  0  0  0  0  0
    1.0323   -0.8151   -6.6097 H   0  0  0  0  0  0  0  0  0  0  0  0
   -0.5384    0.1184   -4.9072 H   0  0  0  0  0  0  0  0  0  0  0  0
    1.0320    0.9585   -4.8275 H   0  0  0  0  0  0  0  0  0  0  0  0
   -0.3222    1.7061   -0.1772 H   0  0  0  0  0  0  0  0  0  0  0  0
  1  5  1  0  0  0  0
  1  9  2  0  0  0  0
  1 10  1  0  0  0  0
  2  3  1  0  0  0  0
  2  8  1  0  0  0  0
  3 11  1  0  0  0  0
  4  5  1  0  0  0  0
  4 11  1  0  0  0  0
  5  8  1  0  0  0  0
  6  7  1  0  0  0  0
  7 10  1  0  0  0  0
  2 12  1  0  0  0  0
  2 13  1  0  0  0  0
  3 14  1  0  0  0  0
  3 15  1  0  0  0  0
  4 16  1  0  0  0  0
  4 17  1  0  0  0  0
  5 18  1  0  0  0  0
  6 19  1  0  0  0  0
  6 20  1  0  0  0  0
  6 21  1  0  0  0  0
  7 22  1  0  0  0  0
  7 23  1  0  0  0  0
  8 24  1  0  0  0  0
M  END
$$$$
frag.vs.285_1
  -OEChem-01121112263D

 24 24  0     1  0  0  0  0  0999 V2000
    1.6529   -0.3447   -1.7829 C   0  0  0  0  0  0  0  0  0  0  0  0
   -1.6370    0.2316   -0.2107 C   0  0  0  0  0  0  0  0  0  0  0  0
   -1.3388    0.6821    1.2160 C   0  0  0  0  0  0  0  0  0  0  0  0
    1.2143   -0.1387    0.6379 C   0  0  0  0  0  0  0  0  0  0  0  0
    0.6120   -0.5004   -0.7174 C   0  0  1  0  0  0  0  0  0  0  0  0
    3.9894   -2.8861   -2.9956 C   0  0  0  0  0  0  0  0  0  0  0  0
    3.3491   -1.5156   -2.9387 C   0  0  0  0  0  0  0  0  0  0  0  0
   -0.4905    0.3776   -1.1098 N   0  0  0  0  0  0  0  0  0  0  0  0
    1.8525    0.6933   -2.3994 O   0  0  0  0  0  0  0  0  0  0  0  0
    2.3199   -1.5228   -1.9442 O   0  0  0  0  0  0  0  0  0  0  0  0
   -0.0130   -0.3075    1.9669 S   0  0  0  0  0  0  0  0  0  0  0  0
   -2.0083   -0.8012   -0.2254 H   0  0  0  0  0  0  0  0  0  0  0  0
   -2.4500    0.8554   -0.6007 H   0  0  0  0  0  0  0  0  0  0  0  0
   -1.0468    1.7379    1.2389 H   0  0  0  0  0  0  0  0  0  0  0  0
   -2.2363    0.5773    1.8339 H   0  0  0  0  0  0  0  0  0  0  0  0
    2.0610   -0.7955    0.8668 H   0  0  0  0  0  0  0  0  0  0  0  0
    1.6000    0.8879    0.6467 H   0  0  0  0  0  0  0  0  0  0  0  0
    0.2886   -1.5533   -0.7385 H   0  0  0  0  0  0  0  0  0  0  0  0
    4.4365   -3.1482   -2.0327 H   0  0  0  0  0  0  0  0  0  0  0  0
    3.2485   -3.6476   -3.2604 H   0  0  0  0  0  0  0  0  0  0  0  0
    4.7669   -2.9170   -3.7662 H   0  0  0  0  0  0  0  0  0  0  0  0
    2.9038   -1.2596   -3.9048 H   0  0  0  0  0  0  0  0  0  0  0  0
    4.0905   -0.7561   -2.6732 H   0  0  0  0  0  0  0  0  0  0  0  0
   -0.7925    0.1381   -2.0548 H   0  0  0  0  0  0  0  0  0  0  0  0
  1  5  1  0  0  0  0
  1  9  2  0  0  0  0
  1 10  1  0  0  0  0
  2  3  1  0  0  0  0
  2  8  1  0  0  0  0
  3 11  1  0  0  0  0
  4  5  1  0  0  0  0
  4 11  1  0  0  0  0
  5  8  1  0  0  0  0
  6  7  1  0  0  0  0
  7 10  1  0  0  0  0
  2 12  1  0  0  0  0
  2 13  1  0  0  0  0
  3 14  1  0  0  0  0
  3 15  1  0  0  0  0
  4 16  1  0  0  0  0
  4 17  1  0  0  0  0
  5 18  1  0  0  0  0
  6 19  1  0  0  0  0
  6 20  1  0  0  0  0
  6 21  1  0  0  0  0
  7 22  1  0  0  0  0
  7 23  1  0  0  0  0
  8 24  1  0  0  0  0
M  END
$$$$
frag.vs.286
  -OEChem-01121112263D

 21 22  0     0  0  0  0  0  0999 V2000
   -4.0902    4.2376   -1.4936 C   0  0  0  0  0  0  0  0  0  0  0  0
   -2.7151    4.3237   -1.3301 C   0  0  0  0  0  0  0  0  0  0  0  0
   -0.5469    0.8976   -0.2738 C   0  0  0  0  0  0  0  0  0  0  0  0
   -1.9323    0.8440   -0.4461 C   0  0  0  0  0  0  0  0  0  0  0  0
   -0.5812    3.2417   -0.8037 C   0  0  0  0  0  0  0  0  0  0  0  0
   -4.6804    3.0058   -1.2959 C   0  0  0  0  0  0  0  0  0  0  0  0
   -1.9747    3.1875   -0.9770 C   0  0  0  0  0  0  0  0  0  0  0  0
    0.1298    2.0977   -0.4527 C   0  0  0  0  0  0  0  0  0  0  0  0
   -2.6683    1.9725   -0.7968 C   0  0  0  0  0  0  0  0  0  0  0  0
    1.6080    2.1595   -0.2708 C   0  0  0  0  0  0  0  0  0  0  0  0
   -4.0027    1.8858   -0.9548 N   0  0  0  0  0  0  0  0  0  0  0  0
    2.2387    2.2347   -1.5438 O   0  0  0  0  0  0  0  0  0  0  0  0
   -4.6787    5.1056   -1.7662 H   0  0  0  0  0  0  0  0  0  0  0  0
   -2.2239    5.2825   -1.4799 H   0  0  0  0  0  0  0  0  0  0  0  0
   -0.0079   -0.0054    0.0006 H   0  0  0  0  0  0  0  0  0  0  0  0
   -2.4388   -0.1083   -0.2996 H   0  0  0  0  0  0  0  0  0  0  0  0
   -0.0494    4.1810   -0.9447 H   0  0  0  0  0  0  0  0  0  0  0  0
   -5.7519    2.8778   -1.4091 H   0  0  0  0  0  0  0  0  0  0  0  0
    1.9037    3.0383    0.3191 H   0  0  0  0  0  0  0  0  0  0  0  0
    1.9813    1.2701    0.2556 H   0  0  0  0  0  0  0  0  0  0  0  0
    3.1944    2.2730   -1.3796 H   0  0  0  0  0  0  0  0  0  0  0  0
  1  2  1  0  0  0  0
  1  6  2  0  0  0  0
  2  7  2  0  0  0  0
  3  4  2  0  0  0  0
  3  8  1  0  0  0  0
  4  9  1  0  0  0  0
  5  7  1  0  0  0  0
  5  8  2  0  0  0  0
  6 11  1  0  0  0  0
  7  9  1  0  0  0  0
  8 10  1  0  0  0  0
  9 11  2  0  0  0  0
 10 12  1  0  0  0  0
  1 13  1  0  0  0  0
  2 14  1  0  0  0  0
  3 15  1  0  0  0  0
  4 16  1  0  0  0  0
  5 17  1  0  0  0  0
  6 18  1  0  0  0  0
 10 19  1  0  0  0  0
 10 20  1  0  0  0  0
 12 21  1  0  0  0  0
M  END
$$$$
frag.vs.287_0
  -OEChem-01121112263D

 22 23  0     1  0  0  0  0  0999 V2000
   -4.9308    3.2144    3.1578 C   0  0  0  0  0  0  0  0  0  0  0  0
   -3.8078    2.4451    2.8745 C   0  0  0  0  0  0  0  0  0  0  0  0
   -6.0906    2.5554    3.5327 C   0  0  0  0  0  0  0  0  0  0  0  0
   -5.0846    0.4974    3.3567 C   0  0  0  0  0  0  0  0  0  0  0  0
   -3.8777    1.0600    2.9734 C   0  0  0  0  0  0  0  0  0  0  0  0
   -2.6975    0.2145    2.6774 C   0  0  0  0  0  0  0  0  0  0  0  0
    0.3355    0.0564    1.0450 C   0  0  0  0  0  0  0  0  0  0  0  0
   -1.2669   -1.6773    1.8230 C   0  0  0  0  0  0  0  0  0  0  0  0
   -0.5649   -0.3736    2.1560 C   0  0  2  0  0  0  0  0  0  0  0  0
   -6.1968    1.2119    3.6399 N   0  0  0  0  0  0  0  0  0  0  0  0
   -1.5545    0.7064    2.3164 N   0  0  0  0  0  0  0  0  0  0  0  0
    0.2046    1.0812    0.3924 O   0  0  0  0  0  0  0  0  0  0  0  0
    1.3248   -0.8500    0.8526 O   0  0  0  0  0  0  0  0  0  0  0  0
   -2.7957   -1.5332    2.7619 S   0  0  0  0  0  0  0  0  0  0  0  0
   -4.8996    4.2956    3.0880 H   0  0  0  0  0  0  0  0  0  0  0  0
   -2.8843    2.9347    2.5771 H   0  0  0  0  0  0  0  0  0  0  0  0
   -6.9941    3.1099    3.7639 H   0  0  0  0  0  0  0  0  0  0  0  0
   -5.2002   -0.5781    3.4522 H   0  0  0  0  0  0  0  0  0  0  0  0
   -1.5023   -1.7684    0.7575 H   0  0  0  0  0  0  0  0  0  0  0  0
   -0.6842   -2.5509    2.1283 H   0  0  0  0  0  0  0  0  0  0  0  0
    0.0355   -0.4578    3.0694 H   0  0  0  0  0  0  0  0  0  0  0  0
    1.9268   -0.5861    0.1244 H   0  0  0  0  0  0  0  0  0  0  0  0
  1  2  1  0  0  0  0
  1  3  2  0  0  0  0
  2  5  2  0  0  0  0
  3 10  1  0  0  0  0
  4  5  1  0  0  0  0
  4 10  2  0  0  0  0
  5  6  1  0  0  0  0
  6 11  2  0  0  0  0
  6 14  1  0  0  0  0
  7  9  1  0  0  0  0
  7 12  2  0  0  0  0
  7 13  1  0  0  0  0
  8  9  1  0  0  0  0
  8 14  1  0  0  0  0
  9 11  1  0  0  0  0
  1 15  1  0  0  0  0
  2 16  1  0  0  0  0
  3 17  1  0  0  0  0
  4 18  1  0  0  0  0
  8 19  1  0  0  0  0
  8 20  1  0  0  0  0
  9 21  1  0  0  0  0
 13 22  1  0  0  0  0
M  END
$$$$
frag.vs.287_1
  -OEChem-01121112263D

 22 23  0     1  0  0  0  0  0999 V2000
    5.5379   -3.7975   -3.1394 C   0  0  0  0  0  0  0  0  0  0  0  0
    4.4985   -2.9591   -2.7521 C   0  0  0  0  0  0  0  0  0  0  0  0
    5.5195   -4.2993   -4.4307 C   0  0  0  0  0  0  0  0  0  0  0  0
    3.5603   -3.2054   -4.9236 C   0  0  0  0  0  0  0  0  0  0  0  0
    3.4868   -2.6525   -3.6552 C   0  0  0  0  0  0  0  0  0  0  0  0
    2.3853   -1.7773   -3.2773 C   0  0  0  0  0  0  0  0  0  0  0  0
    0.8911   -0.0139   -0.7158 C   0  0  0  0  0  0  0  0  0  0  0  0
    0.8757    0.2357   -3.1608 C   0  0  0  0  0  0  0  0  0  0  0  0
    0.7878   -0.7642   -2.0251 C   0  0  1  0  0  0  0  0  0  0  0  0
    4.5541   -4.0239   -5.3360 N   0  0  0  0  0  0  0  0  0  0  0  0
    1.9368   -1.6839   -2.0657 N   0  0  0  0  0  0  0  0  0  0  0  0
    1.7799   -0.1621    0.1098 O   0  0  0  0  0  0  0  0  0  0  0  0
   -0.1434    0.8508   -0.5766 O   0  0  0  0  0  0  0  0  0  0  0  0
    1.6314   -0.7429   -4.4704 S   0  0  0  0  0  0  0  0  0  0  0  0
    6.3377   -4.0499   -2.4526 H   0  0  0  0  0  0  0  0  0  0  0  0
    4.4862   -2.5512   -1.7449 H   0  0  0  0  0  0  0  0  0  0  0  0
    6.3072   -4.9580   -4.7815 H   0  0  0  0  0  0  0  0  0  0  0  0
    2.8004   -3.0020   -5.6722 H   0  0  0  0  0  0  0  0  0  0  0  0
   -0.1071    0.6150   -3.4548 H   0  0  0  0  0  0  0  0  0  0  0  0
    1.5238    1.0862   -2.9255 H   0  0  0  0  0  0  0  0  0  0  0  0
   -0.1444   -1.3104   -2.0284 H   0  0  0  0  0  0  0  0  0  0  0  0
   -0.0954    1.3465    0.2686 H   0  0  0  0  0  0  0  0  0  0  0  0
  1  2  1  0  0  0  0
  1  3  2  0  0  0  0
  2  5  2  0  0  0  0
  3 10  1  0  0  0  0
  4  5  1  0  0  0  0
  4 10  2  0  0  0  0
  5  6  1  0  0  0  0
  6 11  2  0  0  0  0
  6 14  1  0  0  0  0
  7  9  1  0  0  0  0
  7 12  2  0  0  0  0
  7 13  1  0  0  0  0
  8  9  1  0  0  0  0
  8 14  1  0  0  0  0
  9 11  1  0  0  0  0
  1 15  1  0  0  0  0
  2 16  1  0  0  0  0
  3 17  1  0  0  0  0
  4 18  1  0  0  0  0
  8 19  1  0  0  0  0
  8 20  1  0  0  0  0
  9 21  1  0  0  0  0
 13 22  1  0  0  0  0
M  END
$$$$
frag.vs.288
  -OEChem-01121112263D

 24 25  0     0  0  0  0  0  0999 V2000
    1.8851   -1.0363   -0.1124 C   0  0  0  0  0  0  0  0  0  0  0  0
    0.8066   -0.4630    0.5610 C   0  0  0  0  0  0  0  0  0  0  0  0
    6.1142   -2.1687    3.8075 C   0  0  0  0  0  0  0  0  0  0  0  0
    2.9210   -1.6309    0.6081 C   0  0  0  0  0  0  0  0  0  0  0  0
    5.0837   -1.5424    3.1153 C   0  0  0  0  0  0  0  0  0  0  0  0
    0.7638   -0.4841    1.9551 C   0  0  0  0  0  0  0  0  0  0  0  0
    5.9831   -3.5204    4.0823 C   0  0  0  0  0  0  0  0  0  0  0  0
    3.9344   -3.6234    3.0478 C   0  0  0  0  0  0  0  0  0  0  0  0
    3.9693   -2.2765    2.7247 C   0  0  0  0  0  0  0  0  0  0  0  0
    2.8783   -1.6520    2.0022 C   0  0  0  0  0  0  0  0  0  0  0  0
    1.7997   -1.0786    2.6757 C   0  0  0  0  0  0  0  0  0  0  0  0
    1.7153   -1.0789    4.1318 C   0  0  0  0  0  0  0  0  0  0  0  0
    4.9159   -4.2666    3.7190 N   0  0  0  0  0  0  0  0  0  0  0  0
    1.6931   -2.0855    4.8434 O   0  0  0  0  0  0  0  0  0  0  0  0
    1.6631    0.1787    4.6461 O   0  0  0  0  0  0  0  0  0  0  0  0
    1.9181   -1.0200   -1.1979 H   0  0  0  0  0  0  0  0  0  0  0  0
   -0.0002   -0.0006   -0.0002 H   0  0  0  0  0  0  0  0  0  0  0  0
    6.9929   -1.6172    4.1215 H   0  0  0  0  0  0  0  0  0  0  0  0
    3.7543   -2.0731    0.0671 H   0  0  0  0  0  0  0  0  0  0  0  0
    5.1625   -0.4823    2.8876 H   0  0  0  0  0  0  0  0  0  0  0  0
   -0.0825   -0.0341    2.4678 H   0  0  0  0  0  0  0  0  0  0  0  0
    6.7592   -4.0554    4.6201 H   0  0  0  0  0  0  0  0  0  0  0  0
    3.0932   -4.2524    2.7706 H   0  0  0  0  0  0  0  0  0  0  0  0
    1.6071    0.1894    5.6254 H   0  0  0  0  0  0  0  0  0  0  0  0
  1  2  1  0  0  0  0
  1  4  2  0  0  0  0
  2  6  2  0  0  0  0
  3  5  2  0  0  0  0
  3  7  1  0  0  0  0
  4 10  1  0  0  0  0
  5  9  1  0  0  0  0
  6 11  1  0  0  0  0
  7 13  2  0  0  0  0
  8  9  2  0  0  0  0
  8 13  1  0  0  0  0
  9 10  1  0  0  0  0
 10 11  2  0  0  0  0
 11 12  1  0  0  0  0
 12 14  2  0  0  0  0
 12 15  1  0  0  0  0
  1 16  1  0  0  0  0
  2 17  1  0  0  0  0
  3 18  1  0  0  0  0
  4 19  1  0  0  0  0
  5 20  1  0  0  0  0
  6 21  1  0  0  0  0
  7 22  1  0  0  0  0
  8 23  1  0  0  0  0
 15 24  1  0  0  0  0
M  END
$$$$
frag.vs.289
  -OEChem-01121112263D

 23 24  0     0  0  0  0  0  0999 V2000
    1.8851   -1.0363   -0.1124 C   0  0  0  0  0  0  0  0  0  0  0  0
    0.8066   -0.4630    0.5610 C   0  0  0  0  0  0  0  0  0  0  0  0
    6.1160   -2.1710    3.8046 C   0  0  0  0  0  0  0  0  0  0  0  0
    2.9210   -1.6309    0.6081 C   0  0  0  0  0  0  0  0  0  0  0  0
    5.0851   -1.5440    3.1137 C   0  0  0  0  0  0  0  0  0  0  0  0
    0.7638   -0.4841    1.9551 C   0  0  0  0  0  0  0  0  0  0  0  0
    5.9846   -3.5228    4.0789 C   0  0  0  0  0  0  0  0  0  0  0  0
    3.9349   -3.6246    3.0461 C   0  0  0  0  0  0  0  0  0  0  0  0
    3.9701   -2.2775    2.7236 C   0  0  0  0  0  0  0  0  0  0  0  0
    2.8783   -1.6520    2.0022 C   0  0  0  0  0  0  0  0  0  0  0  0
    1.7997   -1.0786    2.6757 C   0  0  0  0  0  0  0  0  0  0  0  0
    4.9169   -4.2684    3.7161 N   0  0  0  0  0  0  0  0  0  0  0  0
    1.7307   -1.0834    4.0878 N   0  0  0  0  0  0  0  0  0  0  0  0
    1.9187   -1.0189   -1.1980 H   0  0  0  0  0  0  0  0  0  0  0  0
   -0.0002   -0.0007   -0.0002 H   0  0  0  0  0  0  0  0  0  0  0  0
    6.9952   -1.6200    4.1181 H   0  0  0  0  0  0  0  0  0  0  0  0
    3.7540   -2.0737    0.0672 H   0  0  0  0  0  0  0  0  0  0  0  0
    5.1641   -0.4838    2.8864 H   0  0  0  0  0  0  0  0  0  0  0  0
   -0.0823   -0.0343    2.4683 H   0  0  0  0  0  0  0  0  0  0  0  0
    6.7611   -4.0584    4.6158 H   0  0  0  0  0  0  0  0  0  0  0  0
    3.0933   -4.2531    2.7693 H   0  0  0  0  0  0  0  0  0  0  0  0
    0.9685   -0.6213    4.5372 H   0  0  0  0  0  0  0  0  0  0  0  0
    2.4920   -1.4656    4.6085 H   0  0  0  0  0  0  0  0  0  0  0  0
  1  2  1  0  0  0  0
  1  4  2  0  0  0  0
  2  6  2  0  0  0  0
  3  5  2  0  0  0  0
  3  7  1  0  0  0  0
  4 10  1  0  0  0  0
  5  9  1  0  0  0  0
  6 11  1  0  0  0  0
  7 12  2  0  0  0  0
  8  9  2  0  0  0  0
  8 12  1  0  0  0  0
  9 10  1  0  0  0  0
 10 11  2  0  0  0  0
 11 13  1  0  0  0  0
  1 14  1  0  0  0  0
  2 15  1  0  0  0  0
  3 16  1  0  0  0  0
  4 17  1  0  0  0  0
  5 18  1  0  0  0  0
  6 19  1  0  0  0  0
  7 20  1  0  0  0  0
  8 21  1  0  0  0  0
 13 22  1  0  0  0  0
 13 23  1  0  0  0  0
M  END
$$$$
frag.vs.290
  -OEChem-01121112263D

 24 25  0     0  0  0  0  0  0999 V2000
    1.8851   -1.0363   -0.1124 C   0  0  0  0  0  0  0  0  0  0  0  0
   -1.8505    0.2136    4.5346 C   0  0  0  0  0  0  0  0  0  0  0  0
    0.8066   -0.4630    0.5610 C   0  0  0  0  0  0  0  0  0  0  0  0
   -0.7725   -0.3790    3.8865 C   0  0  0  0  0  0  0  0  0  0  0  0
    2.9210   -1.6309    0.6081 C   0  0  0  0  0  0  0  0  0  0  0  0
    1.7997   -1.0786    2.6757 C   0  0  0  0  0  0  0  0  0  0  0  0
   -2.4720    1.2846    3.9130 C   0  0  0  0  0  0  0  0  0  0  0  0
   -1.0433    1.1862    2.1164 C   0  0  0  0  0  0  0  0  0  0  0  0
    0.7638   -0.4841    1.9551 C   0  0  0  0  0  0  0  0  0  0  0  0
   -0.3548    0.1107    2.6540 C   0  0  0  0  0  0  0  0  0  0  0  0
    2.8783   -1.6520    2.0022 C   0  0  0  0  0  0  0  0  0  0  0  0
    3.9595   -2.2706    2.7529 C   0  0  0  0  0  0  0  0  0  0  0  0
   -2.0948    1.7880    2.7163 N   0  0  0  0  0  0  0  0  0  0  0  0
    4.0247   -2.3458    3.9842 O   0  0  0  0  0  0  0  0  0  0  0  0
    4.9295   -2.7796    1.9447 O   0  0  0  0  0  0  0  0  0  0  0  0
    1.9184   -1.0197   -1.1979 H   0  0  0  0  0  0  0  0  0  0  0  0
   -2.1945   -0.1513    5.4955 H   0  0  0  0  0  0  0  0  0  0  0  0
    0.0068   -0.0033   -0.0149 H   0  0  0  0  0  0  0  0  0  0  0  0
   -0.2677   -1.2210    4.3535 H   0  0  0  0  0  0  0  0  0  0  0  0
    3.7566   -2.0740    0.0726 H   0  0  0  0  0  0  0  0  0  0  0  0
    1.7698   -1.0962    3.7635 H   0  0  0  0  0  0  0  0  0  0  0  0
   -3.3173    1.7820    4.3776 H   0  0  0  0  0  0  0  0  0  0  0  0
   -0.7679    1.6148    1.1570 H   0  0  0  0  0  0  0  0  0  0  0  0
    5.6633   -3.2001    2.4417 H   0  0  0  0  0  0  0  0  0  0  0  0
  1  3  1  0  0  0  0
  1  5  2  0  0  0  0
  2  4  2  0  0  0  0
  2  7  1  0  0  0  0
  3  9  2  0  0  0  0
  4 10  1  0  0  0  0
  5 11  1  0  0  0  0
  6  9  1  0  0  0  0
  6 11  2  0  0  0  0
  7 13  2  0  0  0  0
  8 10  2  0  0  0  0
  8 13  1  0  0  0  0
  9 10  1  0  0  0  0
 11 12  1  0  0  0  0
 12 14  2  0  0  0  0
 12 15  1  0  0  0  0
  1 16  1  0  0  0  0
  2 17  1  0  0  0  0
  3 18  1  0  0  0  0
  4 19  1  0  0  0  0
  5 20  1  0  0  0  0
  6 21  1  0  0  0  0
  7 22  1  0  0  0  0
  8 23  1  0  0  0  0
 15 24  1  0  0  0  0
M  END
$$$$
frag.vs.291
  -OEChem-01121112263D

 29 30  0     0  0  0  0  0  0999 V2000
    4.0249   -1.7151    6.1899 C   0  0  0  0  0  0  0  0  0  0  0  0
    2.1495   -6.7338    9.0893 C   0  0  0  0  0  0  0  0  0  0  0  0
    3.3807   -2.4835    7.1596 C   0  0  0  0  0  0  0  0  0  0  0  0
    2.8079   -5.9935    8.1137 C   0  0  0  0  0  0  0  0  0  0  0  0
    4.4676   -2.3107    5.0088 C   0  0  0  0  0  0  0  0  0  0  0  0
    3.6220   -4.4431    5.7671 C   0  0  0  0  0  0  0  0  0  0  0  0
    1.2100   -6.0834    9.8731 C   0  0  0  0  0  0  0  0  0  0  0  0
    1.5552   -4.0878    8.7885 C   0  0  0  0  0  0  0  0  0  0  0  0
    3.1793   -3.8475    6.9482 C   0  0  0  0  0  0  0  0  0  0  0  0
    2.5110   -4.6445    7.9540 C   0  0  0  0  0  0  0  0  0  0  0  0
    4.2662   -3.6746    4.7974 C   0  0  0  0  0  0  0  0  0  0  0  0
    6.3765   -5.7171    2.4831 C   0  0  0  0  0  0  0  0  0  0  0  0
    4.7400   -4.3107    3.5342 C   0  0  0  0  0  0  0  0  0  0  0  0
    0.8948   -4.7748    9.7474 N   0  0  0  0  0  0  0  0  0  0  0  0
    5.9337   -5.0937    3.7296 N   0  0  0  0  0  0  0  0  0  0  0  0
    4.1820   -0.6531    6.3549 H   0  0  0  0  0  0  0  0  0  0  0  0
    2.3636   -7.7867    9.2317 H   0  0  0  0  0  0  0  0  0  0  0  0
    3.0412   -2.0046    8.0752 H   0  0  0  0  0  0  0  0  0  0  0  0
    3.5496   -6.4807    7.4857 H   0  0  0  0  0  0  0  0  0  0  0  0
    4.9684   -1.7044    4.2584 H   0  0  0  0  0  0  0  0  0  0  0  0
    3.4684   -5.5066    5.5961 H   0  0  0  0  0  0  0  0  0  0  0  0
    0.6691   -6.6164   10.6484 H   0  0  0  0  0  0  0  0  0  0  0  0
    1.2772   -3.0403    8.7142 H   0  0  0  0  0  0  0  0  0  0  0  0
    5.5874   -6.3592    2.0832 H   0  0  0  0  0  0  0  0  0  0  0  0
    7.2683   -6.3243    2.6603 H   0  0  0  0  0  0  0  0  0  0  0  0
    6.6162   -4.9505    1.7414 H   0  0  0  0  0  0  0  0  0  0  0  0
    3.9733   -4.9769    3.1146 H   0  0  0  0  0  0  0  0  0  0  0  0
    4.9633   -3.5596    2.7642 H   0  0  0  0  0  0  0  0  0  0  0  0
    6.6903   -4.4988    4.0819 H   0  0  0  0  0  0  0  0  0  0  0  0
  1  3  1  0  0  0  0
  1  5  2  0  0  0  0
  2  4  2  0  0  0  0
  2  7  1  0  0  0  0
  3  9  2  0  0  0  0
  4 10  1  0  0  0  0
  5 11  1  0  0  0  0
  6  9  1  0  0  0  0
  6 11  2  0  0  0  0
  7 14  2  0  0  0  0
  8 10  2  0  0  0  0
  8 14  1  0  0  0  0
  9 10  1  0  0  0  0
 11 13  1  0  0  0  0
 12 15  1  0  0  0  0
 13 15  1  0  0  0  0
  1 16  1  0  0  0  0
  2 17  1  0  0  0  0
  3 18  1  0  0  0  0
  4 19  1  0  0  0  0
  5 20  1  0  0  0  0
  6 21  1  0  0  0  0
  7 22  1  0  0  0  0
  8 23  1  0  0  0  0
 12 24  1  0  0  0  0
 12 25  1  0  0  0  0
 12 26  1  0  0  0  0
 13 27  1  0  0  0  0
 13 28  1  0  0  0  0
 15 29  1  0  0  0  0
M  END
$$$$
frag.vs.292
  -OEChem-01121112263D

 23 24  0     0  0  0  0  0  0999 V2000
    1.8851   -1.0363   -0.1124 C   0  0  0  0  0  0  0  0  0  0  0  0
   -1.2926    1.2288    4.5650 C   0  0  0  0  0  0  0  0  0  0  0  0
    0.8066   -0.4630    0.5610 C   0  0  0  0  0  0  0  0  0  0  0  0
   -0.1986    0.6640    3.9190 C   0  0  0  0  0  0  0  0  0  0  0  0
    2.9210   -1.6309    0.6081 C   0  0  0  0  0  0  0  0  0  0  0  0
    1.7997   -1.0786    2.6757 C   0  0  0  0  0  0  0  0  0  0  0  0
   -2.5122    1.2151    3.9075 C   0  0  0  0  0  0  0  0  0  0  0  0
   -1.6169    0.1467    2.0813 C   0  0  0  0  0  0  0  0  0  0  0  0
    0.7638   -0.4841    1.9551 C   0  0  0  0  0  0  0  0  0  0  0  0
   -0.3553    0.1105    2.6531 C   0  0  0  0  0  0  0  0  0  0  0  0
    2.8783   -1.6520    2.0022 C   0  0  0  0  0  0  0  0  0  0  0  0
   -2.7032    0.6867    2.6779 N   0  0  0  0  0  0  0  0  0  0  0  0
    3.9261   -2.2529    2.7302 N   0  0  0  0  0  0  0  0  0  0  0  0
    1.9182   -1.0198   -1.1979 H   0  0  0  0  0  0  0  0  0  0  0  0
   -1.1948    1.6654    5.5522 H   0  0  0  0  0  0  0  0  0  0  0  0
    0.0071   -0.0028   -0.0150 H   0  0  0  0  0  0  0  0  0  0  0  0
    0.7695    0.6623    4.4137 H   0  0  0  0  0  0  0  0  0  0  0  0
    3.7566   -2.0750    0.0730 H   0  0  0  0  0  0  0  0  0  0  0  0
    1.7707   -1.0973    3.7635 H   0  0  0  0  0  0  0  0  0  0  0  0
   -3.3963    1.6436    4.3686 H   0  0  0  0  0  0  0  0  0  0  0  0
   -1.8059   -0.2693    1.0957 H   0  0  0  0  0  0  0  0  0  0  0  0
    4.6699   -2.7014    2.2347 H   0  0  0  0  0  0  0  0  0  0  0  0
    3.8611   -2.3034    3.7268 H   0  0  0  0  0  0  0  0  0  0  0  0
  1  3  1  0  0  0  0
  1  5  2  0  0  0  0
  2  4  2  0  0  0  0
  2  7  1  0  0  0  0
  3  9  2  0  0  0  0
  4 10  1  0  0  0  0
  5 11  1  0  0  0  0
  6  9  1  0  0  0  0
  6 11  2  0  0  0  0
  7 12  2  0  0  0  0
  8 10  2  0  0  0  0
  8 12  1  0  0  0  0
  9 10  1  0  0  0  0
 11 13  1  0  0  0  0
  1 14  1  0  0  0  0
  2 15  1  0  0  0  0
  3 16  1  0  0  0  0
  4 17  1  0  0  0  0
  5 18  1  0  0  0  0
  6 19  1  0  0  0  0
  7 20  1  0  0  0  0
  8 21  1  0  0  0  0
 13 22  1  0  0  0  0
 13 23  1  0  0  0  0
M  END
$$$$
frag.vs.293
  -OEChem-01121112263D

 23 24  0     0  0  0  0  0  0999 V2000
    5.5365   -2.3280   -1.9701 C   0  0  0  0  0  0  0  0  0  0  0  0
    4.4577   -1.7360   -1.3228 C   0  0  0  0  0  0  0  0  0  0  0  0
    1.8851   -1.0363   -0.1124 C   0  0  0  0  0  0  0  0  0  0  0  0
    2.8783   -1.6520    2.0022 C   0  0  0  0  0  0  0  0  0  0  0  0
    0.8066   -0.4630    0.5610 C   0  0  0  0  0  0  0  0  0  0  0  0
    1.7997   -1.0786    2.6757 C   0  0  0  0  0  0  0  0  0  0  0  0
    6.1585   -3.3983   -1.3477 C   0  0  0  0  0  0  0  0  0  0  0  0
    4.7286   -3.3006    0.4478 C   0  0  0  0  0  0  0  0  0  0  0  0
    2.9210   -1.6309    0.6081 C   0  0  0  0  0  0  0  0  0  0  0  0
    4.0397   -2.2256   -0.0903 C   0  0  0  0  0  0  0  0  0  0  0  0
    0.7638   -0.4841    1.9551 C   0  0  0  0  0  0  0  0  0  0  0  0
    5.7810   -3.9017   -0.1512 N   0  0  0  0  0  0  0  0  0  0  0  0
   -0.3267    0.0955    2.6361 N   0  0  0  0  0  0  0  0  0  0  0  0
    5.8797   -1.9643   -2.9317 H   0  0  0  0  0  0  0  0  0  0  0  0
    3.9527   -0.8944   -1.7903 H   0  0  0  0  0  0  0  0  0  0  0  0
    1.9042   -1.0118   -1.1994 H   0  0  0  0  0  0  0  0  0  0  0  0
    3.6780   -2.1118    2.5779 H   0  0  0  0  0  0  0  0  0  0  0  0
    0.0046   -0.0022   -0.0102 H   0  0  0  0  0  0  0  0  0  0  0  0
    1.7766   -1.1009    3.7622 H   0  0  0  0  0  0  0  0  0  0  0  0
    7.0050   -3.8947   -1.8114 H   0  0  0  0  0  0  0  0  0  0  0  0
    4.4516   -3.7305    1.4062 H   0  0  0  0  0  0  0  0  0  0  0  0
   -1.0393    0.5598    2.1103 H   0  0  0  0  0  0  0  0  0  0  0  0
   -0.3224    0.1155    3.6359 H   0  0  0  0  0  0  0  0  0  0  0  0
  1  2  1  0  0  0  0
  1  7  2  0  0  0  0
  2 10  2  0  0  0  0
  3  5  2  0  0  0  0
  3  9  1  0  0  0  0
  4  6  1  0  0  0  0
  4  9  2  0  0  0  0
  5 11  1  0  0  0  0
  6 11  2  0  0  0  0
  7 12  1  0  0  0  0
  8 10  1  0  0  0  0
  8 12  2  0  0  0  0
  9 10  1  0  0  0  0
 11 13  1  0  0  0  0
  1 14  1  0  0  0  0
  2 15  1  0  0  0  0
  3 16  1  0  0  0  0
  4 17  1  0  0  0  0
  5 18  1  0  0  0  0
  6 19  1  0  0  0  0
  7 20  1  0  0  0  0
  8 21  1  0  0  0  0
 13 22  1  0  0  0  0
 13 23  1  0  0  0  0
M  END
$$$$
frag.vs.294
  -OEChem-01121112263D

 20 21  0     0  0  0  0  0  0999 V2000
    0.2265   -0.4197    0.9733 C   0  0  0  0  0  0  0  0  0  0  0  0
    1.3879   -0.0684    1.6522 C   0  0  0  0  0  0  0  0  0  0  0  0
   -0.6317   -1.3224    1.5803 C   0  0  0  0  0  0  0  0  0  0  0  0
    0.7299   -1.5161    3.4206 C   0  0  0  0  0  0  0  0  0  0  0  0
    4.8275    0.8276    4.4345 C   0  0  0  0  0  0  0  0  0  0  0  0
    1.6520   -0.6227    2.8997 C   0  0  0  0  0  0  0  0  0  0  0  0
    4.5046   -0.3586    5.0598 C   0  0  0  0  0  0  0  0  0  0  0  0
    2.8459   -0.2788    3.6272 C   0  0  0  0  0  0  0  0  0  0  0  0
    5.2721   -0.9333    6.1284 C   0  0  0  0  0  0  0  0  0  0  0  0
   -0.4092   -1.8816    2.7908 N   0  0  0  0  0  0  0  0  0  0  0  0
    3.3684   -0.9942    4.5985 N   0  0  0  0  0  0  0  0  0  0  0  0
    6.3090   -0.4553    6.6278 O   0  0  0  0  0  0  0  0  0  0  0  0
    4.7546   -2.1133    6.5897 O   0  0  0  0  0  0  0  0  0  0  0  0
    3.6695    1.1697    3.2166 S   0  0  0  0  0  0  0  0  0  0  0  0
    0.0000   -0.0004   -0.0003 H   0  0  0  0  0  0  0  0  0  0  0  0
    2.0774    0.6380    1.1966 H   0  0  0  0  0  0  0  0  0  0  0  0
   -1.5509   -1.6290    1.0922 H   0  0  0  0  0  0  0  0  0  0  0  0
    0.8771   -1.9838    4.3900 H   0  0  0  0  0  0  0  0  0  0  0  0
    5.6595    1.4914    4.6241 H   0  0  0  0  0  0  0  0  0  0  0  0
    5.2715   -2.5138    7.3209 H   0  0  0  0  0  0  0  0  0  0  0  0
  1  2  1  0  0  0  0
  1  3  2  0  0  0  0
  2  6  2  0  0  0  0
  3 10  1  0  0  0  0
  4  6  1  0  0  0  0
  4 10  2  0  0  0  0
  5  7  2  0  0  0  0
  5 14  1  0  0  0  0
  6  8  1  0  0  0  0
  7  9  1  0  0  0  0
  7 11  1  0  0  0  0
  8 11  2  0  0  0  0
  8 14  1  0  0  0  0
  9 12  2  0  0  0  0
  9 13  1  0  0  0  0
  1 15  1  0  0  0  0
  2 16  1  0  0  0  0
  3 17  1  0  0  0  0
  4 18  1  0  0  0  0
  5 19  1  0  0  0  0
 13 20  1  0  0  0  0
M  END
$$$$
frag.vs.295
  -OEChem-01121112263D

 21 22  0     0  0  0  0  0  0999 V2000
    0.2970   -0.5400    0.9144 C   0  0  0  0  0  0  0  0  0  0  0  0
    1.4604   -0.1919    1.5917 C   0  0  0  0  0  0  0  0  0  0  0  0
   -0.6365   -1.3142    1.5844 C   0  0  0  0  0  0  0  0  0  0  0  0
    0.6577   -1.3931    3.4809 C   0  0  0  0  0  0  0  0  0  0  0  0
    5.0788    0.4000    4.2237 C   0  0  0  0  0  0  0  0  0  0  0  0
    1.6520   -0.6227    2.8997 C   0  0  0  0  0  0  0  0  0  0  0  0
    4.2455    0.0843    5.2763 C   0  0  0  0  0  0  0  0  0  0  0  0
    2.8459   -0.2788    3.6272 C   0  0  0  0  0  0  0  0  0  0  0  0
    4.6090    0.1299    6.7063 C   0  0  0  0  0  0  0  0  0  0  0  0
   -0.4856   -1.7513    2.8547 N   0  0  0  0  0  0  0  0  0  0  0  0
    2.9646   -0.3048    4.9362 N   0  0  0  0  0  0  0  0  0  0  0  0
    4.0198    1.2747    7.3228 O   0  0  0  0  0  0  0  0  0  0  0  0
    4.2355    0.2035    2.7433 S   0  0  0  0  0  0  0  0  0  0  0  0
    0.1262   -0.2155   -0.1057 H   0  0  0  0  0  0  0  0  0  0  0  0
    2.2082    0.4150    1.0874 H   0  0  0  0  0  0  0  0  0  0  0  0
   -1.5606   -1.6127    1.1002 H   0  0  0  0  0  0  0  0  0  0  0  0
    0.7463   -1.7608    4.4992 H   0  0  0  0  0  0  0  0  0  0  0  0
    6.1091    0.7252    4.2487 H   0  0  0  0  0  0  0  0  0  0  0  0
    4.2638   -0.7658    7.2521 H   0  0  0  0  0  0  0  0  0  0  0  0
    5.7020    0.1872    6.8520 H   0  0  0  0  0  0  0  0  0  0  0  0
    4.2897    1.2541    8.2534 H   0  0  0  0  0  0  0  0  0  0  0  0
  1  2  1  0  0  0  0
  1  3  2  0  0  0  0
  2  6  2  0  0  0  0
  3 10  1  0  0  0  0
  4  6  1  0  0  0  0
  4 10  2  0  0  0  0
  5  7  2  0  0  0  0
  5 13  1  0  0  0  0
  6  8  1  0  0  0  0
  7  9  1  0  0  0  0
  7 11  1  0  0  0  0
  8 11  2  0  0  0  0
  8 13  1  0  0  0  0
  9 12  1  0  0  0  0
  1 14  1  0  0  0  0
  2 15  1  0  0  0  0
  3 16  1  0  0  0  0
  4 17  1  0  0  0  0
  5 18  1  0  0  0  0
  9 19  1  0  0  0  0
  9 20  1  0  0  0  0
 12 21  1  0  0  0  0
M  END
$$$$
frag.vs.296
  -OEChem-01121112263D

 29 30  0     0  0  0  0  0  0999 V2000
    4.0249   -1.7151    6.1899 C   0  0  0  0  0  0  0  0  0  0  0  0
    3.3807   -2.4835    7.1596 C   0  0  0  0  0  0  0  0  0  0  0  0
    4.4676   -2.3107    5.0088 C   0  0  0  0  0  0  0  0  0  0  0  0
    1.5546   -4.0664    8.7812 C   0  0  0  0  0  0  0  0  0  0  0  0
    2.8217   -5.9923    8.0961 C   0  0  0  0  0  0  0  0  0  0  0  0
    3.6220   -4.4431    5.7671 C   0  0  0  0  0  0  0  0  0  0  0  0
    0.9425   -4.8727    9.7272 C   0  0  0  0  0  0  0  0  0  0  0  0
    2.1531   -6.7124    9.0730 C   0  0  0  0  0  0  0  0  0  0  0  0
    3.1793   -3.8475    6.9482 C   0  0  0  0  0  0  0  0  0  0  0  0
    2.5110   -4.6445    7.9540 C   0  0  0  0  0  0  0  0  0  0  0  0
    4.2662   -3.6746    4.7974 C   0  0  0  0  0  0  0  0  0  0  0  0
    6.3765   -5.7171    2.4831 C   0  0  0  0  0  0  0  0  0  0  0  0
    4.7400   -4.3107    3.5342 C   0  0  0  0  0  0  0  0  0  0  0  0
    1.2181   -6.1855    9.8950 N   0  0  0  0  0  0  0  0  0  0  0  0
    5.9337   -5.0937    3.7296 N   0  0  0  0  0  0  0  0  0  0  0  0
    4.1820   -0.6531    6.3549 H   0  0  0  0  0  0  0  0  0  0  0  0
    3.0412   -2.0046    8.0752 H   0  0  0  0  0  0  0  0  0  0  0  0
    4.9684   -1.7044    4.2584 H   0  0  0  0  0  0  0  0  0  0  0  0
    1.2844   -3.0184    8.6996 H   0  0  0  0  0  0  0  0  0  0  0  0
    3.5629   -6.4776    7.4691 H   0  0  0  0  0  0  0  0  0  0  0  0
    3.4684   -5.5066    5.5961 H   0  0  0  0  0  0  0  0  0  0  0  0
    0.1883   -4.4701   10.3955 H   0  0  0  0  0  0  0  0  0  0  0  0
    2.3600   -7.7665    9.2248 H   0  0  0  0  0  0  0  0  0  0  0  0
    5.5874   -6.3592    2.0832 H   0  0  0  0  0  0  0  0  0  0  0  0
    7.2683   -6.3243    2.6603 H   0  0  0  0  0  0  0  0  0  0  0  0
    6.6162   -4.9505    1.7414 H   0  0  0  0  0  0  0  0  0  0  0  0
    3.9733   -4.9769    3.1146 H   0  0  0  0  0  0  0  0  0  0  0  0
    4.9633   -3.5596    2.7642 H   0  0  0  0  0  0  0  0  0  0  0  0
    6.6903   -4.4988    4.0819 H   0  0  0  0  0  0  0  0  0  0  0  0
  1  2  1  0  0  0  0
  1  3  2  0  0  0  0
  2  9  2  0  0  0  0
  3 11  1  0  0  0  0
  4  7  2  0  0  0  0
  4 10  1  0  0  0  0
  5  8  1  0  0  0  0
  5 10  2  0  0  0  0
  6  9  1  0  0  0  0
  6 11  2  0  0  0  0
  7 14  1  0  0  0  0
  8 14  2  0  0  0  0
  9 10  1  0  0  0  0
 11 13  1  0  0  0  0
 12 15  1  0  0  0  0
 13 15  1  0  0  0  0
  1 16  1  0  0  0  0
  2 17  1  0  0  0  0
  3 18  1  0  0  0  0
  4 19  1  0  0  0  0
  5 20  1  0  0  0  0
  6 21  1  0  0  0  0
  7 22  1  0  0  0  0
  8 23  1  0  0  0  0
 12 24  1  0  0  0  0
 12 25  1  0  0  0  0
 12 26  1  0  0  0  0
 13 27  1  0  0  0  0
 13 28  1  0  0  0  0
 15 29  1  0  0  0  0
M  END
$$$$
frag.vs.297
  -OEChem-01121112263D

 20 21  0     0  0  0  0  0  0999 V2000
   -0.9455    0.4696   -0.2604 C   0  0  0  0  0  0  0  0  0  0  0  0
   -2.1012   -0.3134   -0.3361 C   0  0  0  0  0  0  0  0  0  0  0  0
   -4.7209    1.9732   -1.2341 C   0  0  0  0  0  0  0  0  0  0  0  0
   -2.1827    2.4837   -0.8519 C   0  0  0  0  0  0  0  0  0  0  0  0
   -5.3737    0.7659   -1.1396 C   0  0  0  0  0  0  0  0  0  0  0  0
   -3.3574    1.7156   -0.9335 C   0  0  0  0  0  0  0  0  0  0  0  0
   -0.9828    1.8432   -0.5132 C   0  0  0  0  0  0  0  0  0  0  0  0
   -3.2786    0.3511   -0.6747 C   0  0  0  0  0  0  0  0  0  0  0  0
    0.2737    2.6442   -0.4190 C   0  0  0  0  0  0  0  0  0  0  0  0
    0.7990    2.9905   -1.7146 N   0  0  0  0  0  0  0  0  0  0  0  0
   -4.5075   -0.2244   -0.8009 O   0  0  0  0  0  0  0  0  0  0  0  0
   -0.0043   -0.0096    0.0008 H   0  0  0  0  0  0  0  0  0  0  0  0
   -2.0804   -1.3789   -0.1409 H   0  0  0  0  0  0  0  0  0  0  0  0
   -5.1715    2.9222   -1.4876 H   0  0  0  0  0  0  0  0  0  0  0  0
   -2.2064    3.5524   -1.0451 H   0  0  0  0  0  0  0  0  0  0  0  0
   -6.4006    0.4605   -1.2779 H   0  0  0  0  0  0  0  0  0  0  0  0
    0.1046    3.5800    0.1307 H   0  0  0  0  0  0  0  0  0  0  0  0
    1.0592    2.0967    0.1185 H   0  0  0  0  0  0  0  0  0  0  0  0
    1.7851    3.1673   -1.8112 H   0  0  0  0  0  0  0  0  0  0  0  0
    0.1600    3.2481   -2.4485 H   0  0  0  0  0  0  0  0  0  0  0  0
  1  2  1  0  0  0  0
  1  7  2  0  0  0  0
  2  8  2  0  0  0  0
  3  5  2  0  0  0  0
  3  6  1  0  0  0  0
  4  6  2  0  0  0  0
  4  7  1  0  0  0  0
  5 11  1  0  0  0  0
  6  8  1  0  0  0  0
  7  9  1  0  0  0  0
  8 11  1  0  0  0  0
  9 10  1  0  0  0  0
  1 12  1  0  0  0  0
  2 13  1  0  0  0  0
  3 14  1  0  0  0  0
  4 15  1  0  0  0  0
  5 16  1  0  0  0  0
  9 17  1  0  0  0  0
  9 18  1  0  0  0  0
 10 19  1  0  0  0  0
 10 20  1  0  0  0  0
M  END
$$$$
frag.vs.298
  -OEChem-01121112263D

 20 21  0     0  0  0  0  0  0999 V2000
    0.3647    2.0013    0.7245 C   0  0  0  0  0  0  0  0  0  0  0  0
   -0.4431    0.8856    0.4473 C   0  0  0  0  0  0  0  0  0  0  0  0
   -0.1807    3.1490    1.3062 C   0  0  0  0  0  0  0  0  0  0  0  0
   -1.8068    0.9040    0.7456 C   0  0  0  0  0  0  0  0  0  0  0  0
   -1.5345    3.1578    1.5867 C   0  0  0  0  0  0  0  0  0  0  0  0
   -2.3262    2.0536    1.3083 C   0  0  0  0  0  0  0  0  0  0  0  0
   -2.6403   -0.2523    0.4629 C   0  0  0  0  0  0  0  0  0  0  0  0
   -2.3549    4.1954    2.2482 C   0  0  0  0  0  0  0  0  0  0  0  0
   -3.7446    3.6404    1.9321 C   0  0  0  0  0  0  0  0  0  0  0  0
   -3.8527   -0.3349    0.6887 O   0  0  0  0  0  0  0  0  0  0  0  0
   -3.6401    2.2216    1.6648 O   0  0  0  0  0  0  0  0  0  0  0  0
   -1.9388   -1.2768   -0.0962 O   0  0  0  0  0  0  0  0  0  0  0  0
    1.4252    1.9673    0.4903 H   0  0  0  0  0  0  0  0  0  0  0  0
    0.0098    0.0048   -0.0018 H   0  0  0  0  0  0  0  0  0  0  0  0
    0.4467    4.0033    1.5354 H   0  0  0  0  0  0  0  0  0  0  0  0
   -2.1670    4.1978    3.3265 H   0  0  0  0  0  0  0  0  0  0  0  0
   -2.2148    5.1993    1.8397 H   0  0  0  0  0  0  0  0  0  0  0  0
   -4.4408    3.8020    2.7616 H   0  0  0  0  0  0  0  0  0  0  0  0
   -4.1673    4.1174    1.0385 H   0  0  0  0  0  0  0  0  0  0  0  0
   -2.4930   -2.0623   -0.2918 H   0  0  0  0  0  0  0  0  0  0  0  0
  1  2  2  0  0  0  0
  1  3  1  0  0  0  0
  2  4  1  0  0  0  0
  3  5  2  0  0  0  0
  4  6  2  0  0  0  0
  4  7  1  0  0  0  0
  5  6  1  0  0  0  0
  5  8  1  0  0  0  0
  6 11  1  0  0  0  0
  7 10  2  0  0  0  0
  7 12  1  0  0  0  0
  8  9  1  0  0  0  0
  9 11  1  0  0  0  0
  1 13  1  0  0  0  0
  2 14  1  0  0  0  0
  3 15  1  0  0  0  0
  8 16  1  0  0  0  0
  8 17  1  0  0  0  0
  9 18  1  0  0  0  0
  9 19  1  0  0  0  0
 12 20  1  0  0  0  0
M  END
$$$$
frag.vs.299
  -OEChem-01121112263D

 19 20  0     0  0  0  0  0  0999 V2000
    0.9501    0.3042    0.4120 C   0  0  0  0  0  0  0  0  0  0  0  0
    4.1427   -0.4070    1.6975 C   0  0  0  0  0  0  0  0  0  0  0  0
    1.3870    1.5856    0.6653 C   0  0  0  0  0  0  0  0  0  0  0  0
    2.0441   -0.4830    0.8221 C   0  0  0  0  0  0  0  0  0  0  0  0
    3.0235    0.3285    1.2742 C   0  0  0  0  0  0  0  0  0  0  0  0
    3.7676   -1.7195    1.4684 C   0  0  0  0  0  0  0  0  0  0  0  0
    4.5425   -2.8954    1.7247 C   0  0  0  0  0  0  0  0  0  0  0  0
    4.5470   -5.2963    1.5954 C   0  0  0  0  0  0  0  0  0  0  0  0
    2.4948   -1.7700    0.9369 N   0  0  0  0  0  0  0  0  0  0  0  0
    5.6982   -2.9096    2.2041 O   0  0  0  0  0  0  0  0  0  0  0  0
    2.6468    1.6311    1.1907 O   0  0  0  0  0  0  0  0  0  0  0  0
    3.8746   -4.0502    1.3841 O   0  0  0  0  0  0  0  0  0  0  0  0
   -0.0007   -0.0002    0.0017 H   0  0  0  0  0  0  0  0  0  0  0  0
    5.0775   -0.0509    2.1049 H   0  0  0  0  0  0  0  0  0  0  0  0
    0.9261    2.5536    0.5280 H   0  0  0  0  0  0  0  0  0  0  0  0
    3.8993   -6.1185    1.2814 H   0  0  0  0  0  0  0  0  0  0  0  0
    4.7989   -5.4006    2.6538 H   0  0  0  0  0  0  0  0  0  0  0  0
    5.4639   -5.3106    1.0015 H   0  0  0  0  0  0  0  0  0  0  0  0
    1.9644   -2.5902    0.6706 H   0  0  0  0  0  0  0  0  0  0  0  0
  1  3  2  0  0  0  0
  1  4  1  0  0  0  0
  2  5  1  0  0  0  0
  2  6  2  0  0  0  0
  3 11  1  0  0  0  0
  4  5  2  0  0  0  0
  4  9  1  0  0  0  0
  5 11  1  0  0  0  0
  6  7  1  0  0  0  0
  6  9  1  0  0  0  0
  7 10  2  0  0  0  0
  7 12  1  0  0  0  0
  8 12  1  0  0  0  0
  1 13  1  0  0  0  0
  2 14  1  0  0  0  0
  3 15  1  0  0  0  0
  8 16  1  0  0  0  0
  8 17  1  0  0  0  0
  8 18  1  0  0  0  0
  9 19  1  0  0  0  0
M  END
$$$$
frag.vs.300
  -OEChem-01121112263D

 22 23  0     0  0  0  0  0  0999 V2000
    0.9501    0.3042    0.4120 C   0  0  0  0  0  0  0  0  0  0  0  0
    4.1427   -0.4070    1.6975 C   0  0  0  0  0  0  0  0  0  0  0  0
    1.3870    1.5856    0.6653 C   0  0  0  0  0  0  0  0  0  0  0  0
    2.0441   -0.4830    0.8221 C   0  0  0  0  0  0  0  0  0  0  0  0
    3.0235    0.3285    1.2742 C   0  0  0  0  0  0  0  0  0  0  0  0
    3.7676   -1.7195    1.4684 C   0  0  0  0  0  0  0  0  0  0  0  0
    4.5571   -2.8861    1.7325 C   0  0  0  0  0  0  0  0  0  0  0  0
    1.7357   -2.9360    0.5574 C   0  0  0  0  0  0  0  0  0  0  0  0
    6.6729   -3.6605    2.5678 C   0  0  0  0  0  0  0  0  0  0  0  0
    2.4948   -1.7700    0.9369 N   0  0  0  0  0  0  0  0  0  0  0  0
    4.1979   -4.0642    1.5174 O   0  0  0  0  0  0  0  0  0  0  0  0
    2.6468    1.6311    1.1907 O   0  0  0  0  0  0  0  0  0  0  0  0
    5.7892   -2.5766    2.2614 O   0  0  0  0  0  0  0  0  0  0  0  0
   -0.0004   -0.0001    0.0007 H   0  0  0  0  0  0  0  0  0  0  0  0
    5.0772   -0.0507    2.1056 H   0  0  0  0  0  0  0  0  0  0  0  0
    0.9255    2.5534    0.5287 H   0  0  0  0  0  0  0  0  0  0  0  0
    1.9557   -3.1552   -0.4908 H   0  0  0  0  0  0  0  0  0  0  0  0
    2.0216   -3.7792    1.1924 H   0  0  0  0  0  0  0  0  0  0  0  0
    0.6696   -2.7324    0.6910 H   0  0  0  0  0  0  0  0  0  0  0  0
    7.6061   -3.2661    2.9774 H   0  0  0  0  0  0  0  0  0  0  0  0
    6.8749   -4.2348    1.6602 H   0  0  0  0  0  0  0  0  0  0  0  0
    6.1977   -4.3081    3.3083 H   0  0  0  0  0  0  0  0  0  0  0  0
  1  3  2  0  0  0  0
  1  4  1  0  0  0  0
  2  5  1  0  0  0  0
  2  6  2  0  0  0  0
  3 12  1  0  0  0  0
  4  5  2  0  0  0  0
  4 10  1  0  0  0  0
  5 12  1  0  0  0  0
  6  7  1  0  0  0  0
  6 10  1  0  0  0  0
  7 11  2  0  0  0  0
  7 13  1  0  0  0  0
  8 10  1  0  0  0  0
  9 13  1  0  0  0  0
  1 14  1  0  0  0  0
  2 15  1  0  0  0  0
  3 16  1  0  0  0  0
  8 17  1  0  0  0  0
  8 18  1  0  0  0  0
  8 19  1  0  0  0  0
  9 20  1  0  0  0  0
  9 21  1  0  0  0  0
  9 22  1  0  0  0  0
M  END
$$$$
frag.vs.301
  -OEChem-01121112263D

 20 21  0     0  0  0  0  0  0999 V2000
    0.9501    0.3042    0.4120 C   0  0  0  0  0  0  0  0  0  0  0  0
    4.1427   -0.4070    1.6975 C   0  0  0  0  0  0  0  0  0  0  0  0
    1.3870    1.5856    0.6653 C   0  0  0  0  0  0  0  0  0  0  0  0
    2.0441   -0.4830    0.8221 C   0  0  0  0  0  0  0  0  0  0  0  0
    3.0235    0.3285    1.2742 C   0  0  0  0  0  0  0  0  0  0  0  0
    3.7676   -1.7195    1.4684 C   0  0  0  0  0  0  0  0  0  0  0  0
    1.7367   -2.9347    0.5522 C   0  0  0  0  0  0  0  0  0  0  0  0
    4.5387   -2.9578    1.7199 C   0  0  0  0  0  0  0  0  0  0  0  0
    2.4948   -1.7700    0.9369 N   0  0  0  0  0  0  0  0  0  0  0  0
    2.6468    1.6311    1.1907 O   0  0  0  0  0  0  0  0  0  0  0  0
    4.0306   -3.6170    2.8779 O   0  0  0  0  0  0  0  0  0  0  0  0
    0.0000    0.0004    0.0002 H   0  0  0  0  0  0  0  0  0  0  0  0
    5.0777   -0.0527    2.1057 H   0  0  0  0  0  0  0  0  0  0  0  0
    0.9254    2.5530    0.5273 H   0  0  0  0  0  0  0  0  0  0  0  0
    1.9609   -3.1520   -0.4955 H   0  0  0  0  0  0  0  0  0  0  0  0
    2.0195   -3.7792    1.1868 H   0  0  0  0  0  0  0  0  0  0  0  0
    0.6702   -2.7307    0.6818 H   0  0  0  0  0  0  0  0  0  0  0  0
    4.4789   -3.6598    0.8716 H   0  0  0  0  0  0  0  0  0  0  0  0
    5.6082   -2.7460    1.8846 H   0  0  0  0  0  0  0  0  0  0  0  0
    4.5665   -4.4160    2.9973 H   0  0  0  0  0  0  0  0  0  0  0  0
  1  3  2  0  0  0  0
  1  4  1  0  0  0  0
  2  5  1  0  0  0  0
  2  6  2  0  0  0  0
  3 10  1  0  0  0  0
  4  5  2  0  0  0  0
  4  9  1  0  0  0  0
  5 10  1  0  0  0  0
  6  8  1  0  0  0  0
  6  9  1  0  0  0  0
  7  9  1  0  0  0  0
  8 11  1  0  0  0  0
  1 12  1  0  0  0  0
  2 13  1  0  0  0  0
  3 14  1  0  0  0  0
  7 15  1  0  0  0  0
  7 16  1  0  0  0  0
  7 17  1  0  0  0  0
  8 18  1  0  0  0  0
  8 19  1  0  0  0  0
 11 20  1  0  0  0  0
M  END
$$$$
frag.vs.302
  -OEChem-01121112263D

 35 36  0     0  0  0  0  0  0999 V2000
    3.1164   -3.3956   -5.8984 C   0  0  0  0  0  0  0  0  0  0  0  0
    4.1846   -2.6311   -6.3674 C   0  0  0  0  0  0  0  0  0  0  0  0
    2.3425   -2.9338   -4.8337 C   0  0  0  0  0  0  0  0  0  0  0  0
    3.7054   -0.9429   -4.7068 C   0  0  0  0  0  0  0  0  0  0  0  0
    4.4792   -1.4047   -5.7715 C   0  0  0  0  0  0  0  0  0  0  0  0
    2.6371   -1.7074   -4.2379 C   0  0  0  0  0  0  0  0  0  0  0  0
    0.1468   -0.2731   -1.0595 C   0  0  0  0  0  0  0  0  0  0  0  0
    0.9353   -1.5682   -0.9101 C   0  0  0  0  0  0  0  0  0  0  0  0
    0.8808    0.6849   -1.9902 C   0  0  0  0  0  0  0  0  0  0  0  0
    1.2259   -2.2105   -2.2657 C   0  0  0  0  0  0  0  0  0  0  0  0
    1.1648    0.0395   -3.3447 C   0  0  0  0  0  0  0  0  0  0  0  0
    6.3201    1.3330   -7.5310 C   0  0  0  0  0  0  0  0  0  0  0  0
    5.6218   -0.5880   -6.2727 C   0  0  0  0  0  0  0  0  0  0  0  0
    1.8600   -1.2437   -3.1694 N   0  0  0  0  0  0  0  0  0  0  0  0
    5.1868    0.5393   -7.0577 N   0  0  0  0  0  0  0  0  0  0  0  0
    2.8870   -4.3506   -6.3626 H   0  0  0  0  0  0  0  0  0  0  0  0
    4.7823   -2.9987   -7.1976 H   0  0  0  0  0  0  0  0  0  0  0  0
    1.5122   -3.5375   -4.4764 H   0  0  0  0  0  0  0  0  0  0  0  0
    3.9362    0.0137   -4.2435 H   0  0  0  0  0  0  0  0  0  0  0  0
   -0.8507   -0.4900   -1.4602 H   0  0  0  0  0  0  0  0  0  0  0  0
    0.0076    0.1941   -0.0783 H   0  0  0  0  0  0  0  0  0  0  0  0
    1.8827   -1.3560   -0.3985 H   0  0  0  0  0  0  0  0  0  0  0  0
    0.3810   -2.2717   -0.2789 H   0  0  0  0  0  0  0  0  0  0  0  0
    0.2871    1.5949   -2.1317 H   0  0  0  0  0  0  0  0  0  0  0  0
    1.8275    0.9868   -1.5245 H   0  0  0  0  0  0  0  0  0  0  0  0
    1.8830   -3.0755   -2.1117 H   0  0  0  0  0  0  0  0  0  0  0  0
    0.2916   -2.5771   -2.7105 H   0  0  0  0  0  0  0  0  0  0  0  0
    0.2237   -0.1180   -3.8873 H   0  0  0  0  0  0  0  0  0  0  0  0
    1.7801    0.7261   -3.9395 H   0  0  0  0  0  0  0  0  0  0  0  0
    6.9079    1.6920   -6.6822 H   0  0  0  0  0  0  0  0  0  0  0  0
    5.9655    2.1946   -8.1032 H   0  0  0  0  0  0  0  0  0  0  0  0
    6.9641    0.7266   -8.1736 H   0  0  0  0  0  0  0  0  0  0  0  0
    6.2247   -0.1976   -5.4408 H   0  0  0  0  0  0  0  0  0  0  0  0
    6.2977   -1.1836   -6.9017 H   0  0  0  0  0  0  0  0  0  0  0  0
    4.6541    0.2161   -7.8715 H   0  0  0  0  0  0  0  0  0  0  0  0
  1  2  2  0  0  0  0
  1  3  1  0  0  0  0
  2  5  1  0  0  0  0
  3  6  2  0  0  0  0
  4  5  2  0  0  0  0
  4  6  1  0  0  0  0
  5 13  1  0  0  0  0
  6 14  1  0  0  0  0
  7  8  1  0  0  0  0
  7  9  1  0  0  0  0
  8 10  1  0  0  0  0
  9 11  1  0  0  0  0
 10 14  1  0  0  0  0
 11 14  1  0  0  0  0
 12 15  1  0  0  0  0
 13 15  1  0  0  0  0
  1 16  1  0  0  0  0
  2 17  1  0  0  0  0
  3 18  1  0  0  0  0
  4 19  1  0  0  0  0
  7 20  1  0  0  0  0
  7 21  1  0  0  0  0
  8 22  1  0  0  0  0
  8 23  1  0  0  0  0
  9 24  1  0  0  0  0
  9 25  1  0  0  0  0
 10 26  1  0  0  0  0
 10 27  1  0  0  0  0
 11 28  1  0  0  0  0
 11 29  1  0  0  0  0
 12 30  1  0  0  0  0
 12 31  1  0  0  0  0
 12 32  1  0  0  0  0
 13 33  1  0  0  0  0
 13 34  1  0  0  0  0
 15 35  1  0  0  0  0
M  END
$$$$
frag.vs.303
  -OEChem-01121112263D

 29 30  0     0  0  0  0  0  0999 V2000
    2.8213   -2.9210   -6.3188 C   0  0  0  0  0  0  0  0  0  0  0  0
    2.0474   -2.4593   -5.2541 C   0  0  0  0  0  0  0  0  0  0  0  0
    4.1848   -2.6308   -6.3673 C   0  0  0  0  0  0  0  0  0  0  0  0
    4.0006   -1.4172   -4.2864 C   0  0  0  0  0  0  0  0  0  0  0  0
    2.6371   -1.7074   -4.2379 C   0  0  0  0  0  0  0  0  0  0  0  0
    4.7744   -1.8790   -5.3511 C   0  0  0  0  0  0  0  0  0  0  0  0
    0.1891   -0.2002   -1.0604 C   0  0  0  0  0  0  0  0  0  0  0  0
    0.3405   -1.6994   -1.2857 C   0  0  0  0  0  0  0  0  0  0  0  0
    1.4503    0.5288   -1.5083 C   0  0  0  0  0  0  0  0  0  0  0  0
    0.6905   -2.0183   -2.7385 C   0  0  0  0  0  0  0  0  0  0  0  0
    1.7930    0.2099   -2.9618 C   0  0  0  0  0  0  0  0  0  0  0  0
    1.8600   -1.2437   -3.1694 N   0  0  0  0  0  0  0  0  0  0  0  0
    6.1535   -1.5871   -5.3994 N   0  0  0  0  0  0  0  0  0  0  0  0
    2.3624   -3.5065   -7.1102 H   0  0  0  0  0  0  0  0  0  0  0  0
    0.9857   -2.6914   -5.2268 H   0  0  0  0  0  0  0  0  0  0  0  0
    4.7789   -2.9963   -7.2011 H   0  0  0  0  0  0  0  0  0  0  0  0
    4.4608   -0.8306   -3.4943 H   0  0  0  0  0  0  0  0  0  0  0  0
   -0.6759    0.1739   -1.6212 H   0  0  0  0  0  0  0  0  0  0  0  0
   -0.0005    0.0003   -0.0001 H   0  0  0  0  0  0  0  0  0  0  0  0
    1.1311   -2.0842   -0.6290 H   0  0  0  0  0  0  0  0  0  0  0  0
   -0.5859   -2.2139   -1.0072 H   0  0  0  0  0  0  0  0  0  0  0  0
    1.3181    1.6098   -1.3884 H   0  0  0  0  0  0  0  0  0  0  0  0
    2.2871    0.2328   -0.8630 H   0  0  0  0  0  0  0  0  0  0  0  0
    0.8932   -3.0932   -2.8238 H   0  0  0  0  0  0  0  0  0  0  0  0
   -0.1660   -1.7886   -3.3855 H   0  0  0  0  0  0  0  0  0  0  0  0
    1.0373    0.6467   -3.6275 H   0  0  0  0  0  0  0  0  0  0  0  0
    2.7575    0.6728   -3.2056 H   0  0  0  0  0  0  0  0  0  0  0  0
    6.7063   -1.9645   -6.1423 H   0  0  0  0  0  0  0  0  0  0  0  0
    6.5731   -1.0878   -4.6414 H   0  0  0  0  0  0  0  0  0  0  0  0
  1  2  2  0  0  0  0
  1  3  1  0  0  0  0
  2  5  1  0  0  0  0
  3  6  2  0  0  0  0
  4  5  2  0  0  0  0
  4  6  1  0  0  0  0
  5 12  1  0  0  0  0
  6 13  1  0  0  0  0
  7  8  1  0  0  0  0
  7  9  1  0  0  0  0
  8 10  1  0  0  0  0
  9 11  1  0  0  0  0
 10 12  1  0  0  0  0
 11 12  1  0  0  0  0
  1 14  1  0  0  0  0
  2 15  1  0  0  0  0
  3 16  1  0  0  0  0
  4 17  1  0  0  0  0
  7 18  1  0  0  0  0
  7 19  1  0  0  0  0
  8 20  1  0  0  0  0
  8 21  1  0  0  0  0
  9 22  1  0  0  0  0
  9 23  1  0  0  0  0
 10 24  1  0  0  0  0
 10 25  1  0  0  0  0
 11 26  1  0  0  0  0
 11 27  1  0  0  0  0
 13 28  1  0  0  0  0
 13 29  1  0  0  0  0
M  END
$$$$
frag.vs.304
  -OEChem-01121112263D

 36 37  0     0  0  0  0  0  0999 V2000
    4.5830   -5.6792   -2.3705 C   0  0  0  0  0  0  0  0  0  0  0  0
    3.9041   -4.4931   -2.6495 C   0  0  0  0  0  0  0  0  0  0  0  0
    3.8818   -6.7909   -1.9034 C   0  0  0  0  0  0  0  0  0  0  0  0
    1.8228   -5.5302   -1.9939 C   0  0  0  0  0  0  0  0  0  0  0  0
    2.5240   -4.4186   -2.4612 C   0  0  0  0  0  0  0  0  0  0  0  0
    2.5017   -6.7163   -1.7150 C   0  0  0  0  0  0  0  0  0  0  0  0
    1.9353    0.2733   -1.1624 C   0  0  0  0  0  0  0  0  0  0  0  0
    1.4286   -1.3561    0.5417 C   0  0  0  0  0  0  0  0  0  0  0  0
    1.7095   -0.7884   -2.2443 C   0  0  0  0  0  0  0  0  0  0  0  0
    1.2016   -2.4171   -0.5406 C   0  0  0  0  0  0  0  0  0  0  0  0
    1.3470    0.9974    1.0613 C   0  0  0  0  0  0  0  0  0  0  0  0
    1.7938   -3.1419   -2.7630 C   0  0  0  0  0  0  0  0  0  0  0  0
    1.7521   -7.9049   -1.2148 C   0  0  0  0  0  0  0  0  0  0  0  0
    1.1274   -0.0138    0.0291 N   0  0  0  0  0  0  0  0  0  0  0  0
    2.0113   -2.1302   -1.7310 N   0  0  0  0  0  0  0  0  0  0  0  0
    1.4089   -7.7062    0.1511 O   0  0  0  0  0  0  0  0  0  0  0  0
    5.6576   -5.7372   -2.5173 H   0  0  0  0  0  0  0  0  0  0  0  0
    4.4587   -3.6322   -3.0137 H   0  0  0  0  0  0  0  0  0  0  0  0
    4.4190   -7.7107   -1.6879 H   0  0  0  0  0  0  0  0  0  0  0  0
    0.7467   -5.4730   -1.8478 H   0  0  0  0  0  0  0  0  0  0  0  0
    3.0034    0.3206   -0.9093 H   0  0  0  0  0  0  0  0  0  0  0  0
    1.6541    1.2502   -1.5743 H   0  0  0  0  0  0  0  0  0  0  0  0
    0.7725   -1.5840    1.3905 H   0  0  0  0  0  0  0  0  0  0  0  0
    2.4640   -1.4140    0.9042 H   0  0  0  0  0  0  0  0  0  0  0  0
    0.6740   -0.7314   -2.6067 H   0  0  0  0  0  0  0  0  0  0  0  0
    2.3650   -0.5601   -3.0936 H   0  0  0  0  0  0  0  0  0  0  0  0
    1.4815   -3.3946   -0.1289 H   0  0  0  0  0  0  0  0  0  0  0  0
    0.1338   -2.4634   -0.7944 H   0  0  0  0  0  0  0  0  0  0  0  0
    0.7404    0.7727    1.9425 H   0  0  0  0  0  0  0  0  0  0  0  0
    1.0701    1.9865    0.6864 H   0  0  0  0  0  0  0  0  0  0  0  0
    2.4001    1.0159    1.3543 H   0  0  0  0  0  0  0  0  0  0  0  0
    2.1256   -2.7244   -3.7199 H   0  0  0  0  0  0  0  0  0  0  0  0
    0.7152   -3.3149   -2.8402 H   0  0  0  0  0  0  0  0  0  0  0  0
    0.8295   -8.0673   -1.7885 H   0  0  0  0  0  0  0  0  0  0  0  0
    2.3563   -8.8186   -1.2977 H   0  0  0  0  0  0  0  0  0  0  0  0
    0.9252   -8.4982    0.4354 H   0  0  0  0  0  0  0  0  0  0  0  0
  1  2  2  0  0  0  0
  1  3  1  0  0  0  0
  2  5  1  0  0  0  0
  3  6  2  0  0  0  0
  4  5  2  0  0  0  0
  4  6  1  0  0  0  0
  5 12  1  0  0  0  0
  6 13  1  0  0  0  0
  7  9  1  0  0  0  0
  7 14  1  0  0  0  0
  8 10  1  0  0  0  0
  8 14  1  0  0  0  0
  9 15  1  0  0  0  0
 10 15  1  0  0  0  0
 11 14  1  0  0  0  0
 12 15  1  0  0  0  0
 13 16  1  0  0  0  0
  1 17  1  0  0  0  0
  2 18  1  0  0  0  0
  3 19  1  0  0  0  0
  4 20  1  0  0  0  0
  7 21  1  0  0  0  0
  7 22  1  0  0  0  0
  8 23  1  0  0  0  0
  8 24  1  0  0  0  0
  9 25  1  0  0  0  0
  9 26  1  0  0  0  0
 10 27  1  0  0  0  0
 10 28  1  0  0  0  0
 11 29  1  0  0  0  0
 11 30  1  0  0  0  0
 11 31  1  0  0  0  0
 12 32  1  0  0  0  0
 12 33  1  0  0  0  0
 13 34  1  0  0  0  0
 13 35  1  0  0  0  0
 16 36  1  0  0  0  0
M  END
$$$$
frag.vs.305
  -OEChem-01121112263D

 26 27  0     0  0  0  0  0  0999 V2000
    1.8851   -1.0363   -0.1124 C   0  0  0  0  0  0  0  0  0  0  0  0
    2.8783   -1.6520    2.0022 C   0  0  0  0  0  0  0  0  0  0  0  0
    0.8066   -0.4630    0.5610 C   0  0  0  0  0  0  0  0  0  0  0  0
    1.7997   -1.0786    2.6757 C   0  0  0  0  0  0  0  0  0  0  0  0
    3.0676   -3.7163   -1.8903 C   0  0  0  0  0  0  0  0  0  0  0  0
    4.2123   -4.7590   -0.0500 C   0  0  0  0  0  0  0  0  0  0  0  0
    2.8218   -4.9863   -2.3868 C   0  0  0  0  0  0  0  0  0  0  0  0
    3.9152   -5.9823   -0.6288 C   0  0  0  0  0  0  0  0  0  0  0  0
    2.9210   -1.6309    0.6081 C   0  0  0  0  0  0  0  0  0  0  0  0
    3.7767   -3.6091   -0.6992 C   0  0  0  0  0  0  0  0  0  0  0  0
    0.7638   -0.4841    1.9551 C   0  0  0  0  0  0  0  0  0  0  0  0
    4.0744   -2.2445   -0.1110 C   0  0  0  0  0  0  0  0  0  0  0  0
    3.2288   -6.1261   -1.7846 N   0  0  0  0  0  0  0  0  0  0  0  0
   -0.3256    0.0971    2.6364 N   0  0  0  0  0  0  0  0  0  0  0  0
    1.9098   -1.0163   -1.1986 H   0  0  0  0  0  0  0  0  0  0  0  0
    3.6798   -2.1144    2.5719 H   0  0  0  0  0  0  0  0  0  0  0  0
    0.0040   -0.0036   -0.0102 H   0  0  0  0  0  0  0  0  0  0  0  0
    1.7764   -1.1014    3.7621 H   0  0  0  0  0  0  0  0  0  0  0  0
    2.7148   -2.8386   -2.4215 H   0  0  0  0  0  0  0  0  0  0  0  0
    4.7673   -4.7079    0.8804 H   0  0  0  0  0  0  0  0  0  0  0  0
    2.2739   -5.1239   -3.3133 H   0  0  0  0  0  0  0  0  0  0  0  0
    4.2325   -6.9088   -0.1618 H   0  0  0  0  0  0  0  0  0  0  0  0
    4.4265   -1.5774   -0.9176 H   0  0  0  0  0  0  0  0  0  0  0  0
    4.9484   -2.3278    0.5589 H   0  0  0  0  0  0  0  0  0  0  0  0
   -1.0376    0.5627    2.1108 H   0  0  0  0  0  0  0  0  0  0  0  0
   -0.3211    0.1169    3.6362 H   0  0  0  0  0  0  0  0  0  0  0  0
  1  3  1  0  0  0  0
  1  9  2  0  0  0  0
  2  4  2  0  0  0  0
  2  9  1  0  0  0  0
  3 11  2  0  0  0  0
  4 11  1  0  0  0  0
  5  7  2  0  0  0  0
  5 10  1  0  0  0  0
  6  8  1  0  0  0  0
  6 10  2  0  0  0  0
  7 13  1  0  0  0  0
  8 13  2  0  0  0  0
  9 12  1  0  0  0  0
 10 12  1  0  0  0  0
 11 14  1  0  0  0  0
  1 15  1  0  0  0  0
  2 16  1  0  0  0  0
  3 17  1  0  0  0  0
  4 18  1  0  0  0  0
  5 19  1  0  0  0  0
  6 20  1  0  0  0  0
  7 21  1  0  0  0  0
  8 22  1  0  0  0  0
 12 23  1  0  0  0  0
 12 24  1  0  0  0  0
 14 25  1  0  0  0  0
 14 26  1  0  0  0  0
M  END
$$$$
frag.vs.306
  -OEChem-01121112263D

 23 24  0     0  0  0  0  0  0999 V2000
    1.8851   -1.0363   -0.1124 C   0  0  0  0  0  0  0  0  0  0  0  0
    0.8066   -0.4630    0.5610 C   0  0  0  0  0  0  0  0  0  0  0  0
    2.9210   -1.6309    0.6081 C   0  0  0  0  0  0  0  0  0  0  0  0
    1.7997   -1.0786    2.6757 C   0  0  0  0  0  0  0  0  0  0  0  0
   -1.6211    0.1598    2.1077 C   0  0  0  0  0  0  0  0  0  0  0  0
   -0.2247    0.6661    3.9104 C   0  0  0  0  0  0  0  0  0  0  0  0
   -2.4302    1.2148    3.9515 C   0  0  0  0  0  0  0  0  0  0  0  0
    0.7638   -0.4841    1.9551 C   0  0  0  0  0  0  0  0  0  0  0  0
   -0.3548    0.1107    2.6540 C   0  0  0  0  0  0  0  0  0  0  0  0
    2.8783   -1.6520    2.0022 C   0  0  0  0  0  0  0  0  0  0  0  0
    3.9595   -2.2706    2.7529 C   0  0  0  0  0  0  0  0  0  0  0  0
   -2.6856    0.7063    2.7309 N   0  0  0  0  0  0  0  0  0  0  0  0
   -1.2449    1.2289    4.5907 N   0  0  0  0  0  0  0  0  0  0  0  0
    4.0247   -2.3458    3.9842 O   0  0  0  0  0  0  0  0  0  0  0  0
    4.9295   -2.7796    1.9447 O   0  0  0  0  0  0  0  0  0  0  0  0
    1.9184   -1.0197   -1.1979 H   0  0  0  0  0  0  0  0  0  0  0  0
    0.0068   -0.0033   -0.0149 H   0  0  0  0  0  0  0  0  0  0  0  0
    3.7566   -2.0740    0.0726 H   0  0  0  0  0  0  0  0  0  0  0  0
    1.7698   -1.0962    3.7635 H   0  0  0  0  0  0  0  0  0  0  0  0
   -1.8339   -0.2515    1.1254 H   0  0  0  0  0  0  0  0  0  0  0  0
    0.7283    0.6792    4.4312 H   0  0  0  0  0  0  0  0  0  0  0  0
   -3.2672    1.6604    4.4750 H   0  0  0  0  0  0  0  0  0  0  0  0
    5.6633   -3.2001    2.4417 H   0  0  0  0  0  0  0  0  0  0  0  0
  1  2  1  0  0  0  0
  1  3  2  0  0  0  0
  2  8  2  0  0  0  0
  3 10  1  0  0  0  0
  4  8  1  0  0  0  0
  4 10  2  0  0  0  0
  5  9  1  0  0  0  0
  5 12  2  0  0  0  0
  6  9  2  0  0  0  0
  6 13  1  0  0  0  0
  7 12  1  0  0  0  0
  7 13  2  0  0  0  0
  8  9  1  0  0  0  0
 10 11  1  0  0  0  0
 11 14  2  0  0  0  0
 11 15  1  0  0  0  0
  1 16  1  0  0  0  0
  2 17  1  0  0  0  0
  3 18  1  0  0  0  0
  4 19  1  0  0  0  0
  5 20  1  0  0  0  0
  6 21  1  0  0  0  0
  7 22  1  0  0  0  0
 15 23  1  0  0  0  0
M  END
$$$$
frag.vs.307
  -OEChem-01121112263D

 24 25  0     0  0  0  0  0  0999 V2000
    1.8851   -1.0363   -0.1124 C   0  0  0  0  0  0  0  0  0  0  0  0
    0.8066   -0.4630    0.5610 C   0  0  0  0  0  0  0  0  0  0  0  0
    2.9210   -1.6309    0.6081 C   0  0  0  0  0  0  0  0  0  0  0  0
    1.7997   -1.0786    2.6757 C   0  0  0  0  0  0  0  0  0  0  0  0
   -1.6213    0.1591    2.1072 C   0  0  0  0  0  0  0  0  0  0  0  0
   -0.2254    0.6661    3.9101 C   0  0  0  0  0  0  0  0  0  0  0  0
   -2.4311    1.2141    3.9507 C   0  0  0  0  0  0  0  0  0  0  0  0
    0.7638   -0.4841    1.9551 C   0  0  0  0  0  0  0  0  0  0  0  0
   -0.3551    0.1104    2.6537 C   0  0  0  0  0  0  0  0  0  0  0  0
    2.8783   -1.6520    2.0022 C   0  0  0  0  0  0  0  0  0  0  0  0
    3.9864   -2.2878    2.7719 C   0  0  0  0  0  0  0  0  0  0  0  0
   -2.6861    0.7054    2.7302 N   0  0  0  0  0  0  0  0  0  0  0  0
   -1.2459    1.2286    4.5901 N   0  0  0  0  0  0  0  0  0  0  0  0
    4.8033   -1.2755    3.3472 O   0  0  0  0  0  0  0  0  0  0  0  0
    1.9184   -1.0194   -1.1980 H   0  0  0  0  0  0  0  0  0  0  0  0
    0.0065   -0.0034   -0.0149 H   0  0  0  0  0  0  0  0  0  0  0  0
    3.7576   -2.0754    0.0753 H   0  0  0  0  0  0  0  0  0  0  0  0
    1.7727   -1.0982    3.7632 H   0  0  0  0  0  0  0  0  0  0  0  0
   -1.8339   -0.2524    1.1249 H   0  0  0  0  0  0  0  0  0  0  0  0
    0.7275    0.6795    4.4311 H   0  0  0  0  0  0  0  0  0  0  0  0
   -3.2683    1.6595    4.4740 H   0  0  0  0  0  0  0  0  0  0  0  0
    3.5996   -2.9266    3.5776 H   0  0  0  0  0  0  0  0  0  0  0  0
    4.6096   -2.9180    2.1229 H   0  0  0  0  0  0  0  0  0  0  0  0
    5.5078   -1.7298    3.8363 H   0  0  0  0  0  0  0  0  0  0  0  0
  1  2  2  0  0  0  0
  1  3  1  0  0  0  0
  2  8  1  0  0  0  0
  3 10  2  0  0  0  0
  4  8  2  0  0  0  0
  4 10  1  0  0  0  0
  5  9  1  0  0  0  0
  5 12  2  0  0  0  0
  6  9  2  0  0  0  0
  6 13  1  0  0  0  0
  7 12  1  0  0  0  0
  7 13  2  0  0  0  0
  8  9  1  0  0  0  0
 10 11  1  0  0  0  0
 11 14  1  0  0  0  0
  1 15  1  0  0  0  0
  2 16  1  0  0  0  0
  3 17  1  0  0  0  0
  4 18  1  0  0  0  0
  5 19  1  0  0  0  0
  6 20  1  0  0  0  0
  7 21  1  0  0  0  0
 11 22  1  0  0  0  0
 11 23  1  0  0  0  0
 14 24  1  0  0  0  0
M  END
$$$$
frag.vs.308
  -OEChem-01121112263D

 22 23  0     0  0  0  0  0  0999 V2000
    1.8851   -1.0363   -0.1124 C   0  0  0  0  0  0  0  0  0  0  0  0
    0.8066   -0.4630    0.5610 C   0  0  0  0  0  0  0  0  0  0  0  0
    2.9210   -1.6309    0.6081 C   0  0  0  0  0  0  0  0  0  0  0  0
    1.7997   -1.0786    2.6757 C   0  0  0  0  0  0  0  0  0  0  0  0
   -1.6213    0.1590    2.1061 C   0  0  0  0  0  0  0  0  0  0  0  0
   -0.2261    0.6664    3.9095 C   0  0  0  0  0  0  0  0  0  0  0  0
   -2.4318    1.2144    3.9491 C   0  0  0  0  0  0  0  0  0  0  0  0
    0.7638   -0.4841    1.9551 C   0  0  0  0  0  0  0  0  0  0  0  0
   -0.3553    0.1105    2.6531 C   0  0  0  0  0  0  0  0  0  0  0  0
    2.8783   -1.6520    2.0022 C   0  0  0  0  0  0  0  0  0  0  0  0
   -2.6864    0.7054    2.7286 N   0  0  0  0  0  0  0  0  0  0  0  0
   -1.2469    1.2291    4.5889 N   0  0  0  0  0  0  0  0  0  0  0  0
    3.9261   -2.2529    2.7302 N   0  0  0  0  0  0  0  0  0  0  0  0
    1.9182   -1.0198   -1.1979 H   0  0  0  0  0  0  0  0  0  0  0  0
    0.0071   -0.0028   -0.0150 H   0  0  0  0  0  0  0  0  0  0  0  0
    3.7566   -2.0750    0.0730 H   0  0  0  0  0  0  0  0  0  0  0  0
    1.7707   -1.0973    3.7635 H   0  0  0  0  0  0  0  0  0  0  0  0
   -1.8335   -0.2526    1.1238 H   0  0  0  0  0  0  0  0  0  0  0  0
    0.7266    0.6800    4.4307 H   0  0  0  0  0  0  0  0  0  0  0  0
   -3.2692    1.6599    4.4720 H   0  0  0  0  0  0  0  0  0  0  0  0
    4.6699   -2.7014    2.2347 H   0  0  0  0  0  0  0  0  0  0  0  0
    3.8611   -2.3034    3.7268 H   0  0  0  0  0  0  0  0  0  0  0  0
  1  2  1  0  0  0  0
  1  3  2  0  0  0  0
  2  8  2  0  0  0  0
  3 10  1  0  0  0  0
  4  8  1  0  0  0  0
  4 10  2  0  0  0  0
  5  9  1  0  0  0  0
  5 11  2  0  0  0  0
  6  9  2  0  0  0  0
  6 12  1  0  0  0  0
  7 11  1  0  0  0  0
  7 12  2  0  0  0  0
  8  9  1  0  0  0  0
 10 13  1  0  0  0  0
  1 14  1  0  0  0  0
  2 15  1  0  0  0  0
  3 16  1  0  0  0  0
  4 17  1  0  0  0  0
  5 18  1  0  0  0  0
  6 19  1  0  0  0  0
  7 20  1  0  0  0  0
 13 21  1  0  0  0  0
 13 22  1  0  0  0  0
M  END
$$$$
frag.vs.309
  -OEChem-01121112263D

 23 24  0     0  0  0  0  0  0999 V2000
    1.8851   -1.0363   -0.1124 C   0  0  0  0  0  0  0  0  0  0  0  0
    2.8783   -1.6520    2.0022 C   0  0  0  0  0  0  0  0  0  0  0  0
    0.8066   -0.4630    0.5610 C   0  0  0  0  0  0  0  0  0  0  0  0
    1.7997   -1.0786    2.6757 C   0  0  0  0  0  0  0  0  0  0  0  0
    4.4745   -1.7590   -1.3142 C   0  0  0  0  0  0  0  0  0  0  0  0
    4.7414   -3.2967    0.4238 C   0  0  0  0  0  0  0  0  0  0  0  0
    6.1159   -3.3299   -1.3864 C   0  0  0  0  0  0  0  0  0  0  0  0
    2.9210   -1.6309    0.6081 C   0  0  0  0  0  0  0  0  0  0  0  0
    4.0397   -2.2256   -0.0904 C   0  0  0  0  0  0  0  0  0  0  0  0
    0.7638   -0.4841    1.9551 C   0  0  0  0  0  0  0  0  0  0  0  0
   -0.3607    0.1136    2.6572 C   0  0  0  0  0  0  0  0  0  0  0  0
    5.5131   -2.2894   -1.9926 N   0  0  0  0  0  0  0  0  0  0  0  0
    5.7884   -3.8759   -0.1997 N   0  0  0  0  0  0  0  0  0  0  0  0
   -1.3283    0.6645    2.1218 O   0  0  0  0  0  0  0  0  0  0  0  0
   -0.2468    0.0059    4.0095 O   0  0  0  0  0  0  0  0  0  0  0  0
    1.9041   -1.0119   -1.1994 H   0  0  0  0  0  0  0  0  0  0  0  0
    3.6781   -2.1116    2.5780 H   0  0  0  0  0  0  0  0  0  0  0  0
    0.0047   -0.0024   -0.0104 H   0  0  0  0  0  0  0  0  0  0  0  0
    1.7765   -1.1007    3.7622 H   0  0  0  0  0  0  0  0  0  0  0  0
    3.9946   -0.9183   -1.8064 H   0  0  0  0  0  0  0  0  0  0  0  0
    4.4827   -3.7403    1.3808 H   0  0  0  0  0  0  0  0  0  0  0  0
    6.9534   -3.7757   -1.9091 H   0  0  0  0  0  0  0  0  0  0  0  0
   -1.0013    0.4056    4.4925 H   0  0  0  0  0  0  0  0  0  0  0  0
  1  3  1  0  0  0  0
  1  8  2  0  0  0  0
  2  4  2  0  0  0  0
  2  8  1  0  0  0  0
  3 10  2  0  0  0  0
  4 10  1  0  0  0  0
  5  9  1  0  0  0  0
  5 12  2  0  0  0  0
  6  9  2  0  0  0  0
  6 13  1  0  0  0  0
  7 12  1  0  0  0  0
  7 13  2  0  0  0  0
  8  9  1  0  0  0  0
 10 11  1  0  0  0  0
 11 14  2  0  0  0  0
 11 15  1  0  0  0  0
  1 16  1  0  0  0  0
  2 17  1  0  0  0  0
  3 18  1  0  0  0  0
  4 19  1  0  0  0  0
  5 20  1  0  0  0  0
  6 21  1  0  0  0  0
  7 22  1  0  0  0  0
 15 23  1  0  0  0  0
M  END
$$$$
frag.vs.310
  -OEChem-01121112263D

 28 29  0     0  0  0  0  0  0999 V2000
    0.7094   -5.1030    3.3823 C   0  0  0  0  0  0  0  0  0  0  0  0
   -1.5267   -5.0937    4.2970 C   0  0  0  0  0  0  0  0  0  0  0  0
    0.7780   -3.7183    3.5359 C   0  0  0  0  0  0  0  0  0  0  0  0
   -1.4581   -3.7090    4.4507 C   0  0  0  0  0  0  0  0  0  0  0  0
    0.6049   -8.0311    3.6758 C   0  0  0  0  0  0  0  0  0  0  0  0
   -1.7058   -7.8818    3.3683 C   0  0  0  0  0  0  0  0  0  0  0  0
   -0.6470   -9.8923    3.3069 C   0  0  0  0  0  0  0  0  0  0  0  0
   -0.4430   -5.7907    3.7628 C   0  0  0  0  0  0  0  0  0  0  0  0
   -0.5142   -7.2268    3.6032 C   0  0  0  0  0  0  0  0  0  0  0  0
   -0.3057   -3.0213    4.0701 C   0  0  0  0  0  0  0  0  0  0  0  0
   -0.9241    0.6083    3.4194 C   0  0  0  0  0  0  0  0  0  0  0  0
   -0.2325   -1.5408    4.2341 C   0  0  0  0  0  0  0  0  0  0  0  0
    0.5747   -9.3723    3.5318 N   0  0  0  0  0  0  0  0  0  0  0  0
   -1.8092   -9.2182    3.2144 N   0  0  0  0  0  0  0  0  0  0  0  0
   -0.9999   -0.8404    3.2358 N   0  0  0  0  0  0  0  0  0  0  0  0
    1.5623   -5.6320    2.9637 H   0  0  0  0  0  0  0  0  0  0  0  0
   -2.4317   -5.6156    4.5989 H   0  0  0  0  0  0  0  0  0  0  0  0
    1.6794   -3.1906    3.2357 H   0  0  0  0  0  0  0  0  0  0  0  0
   -2.3070   -3.1740    4.8683 H   0  0  0  0  0  0  0  0  0  0  0  0
    1.5921   -7.6180    3.8603 H   0  0  0  0  0  0  0  0  0  0  0  0
   -2.6462   -7.3435    3.2940 H   0  0  0  0  0  0  0  0  0  0  0  0
   -0.7008  -10.9674    3.1871 H   0  0  0  0  0  0  0  0  0  0  0  0
   -1.2922    0.8810    4.4119 H   0  0  0  0  0  0  0  0  0  0  0  0
   -1.5322    1.1171    2.6665 H   0  0  0  0  0  0  0  0  0  0  0  0
    0.1106    0.9480    3.3223 H   0  0  0  0  0  0  0  0  0  0  0  0
   -0.6117   -1.2321    5.2184 H   0  0  0  0  0  0  0  0  0  0  0  0
    0.8025   -1.1784    4.1653 H   0  0  0  0  0  0  0  0  0  0  0  0
   -0.6497   -1.0680    2.2999 H   0  0  0  0  0  0  0  0  0  0  0  0
  1  3  2  0  0  0  0
  1  8  1  0  0  0  0
  2  4  1  0  0  0  0
  2  8  2  0  0  0  0
  3 10  1  0  0  0  0
  4 10  2  0  0  0  0
  5  9  1  0  0  0  0
  5 13  2  0  0  0  0
  6  9  2  0  0  0  0
  6 14  1  0  0  0  0
  7 13  1  0  0  0  0
  7 14  2  0  0  0  0
  8  9  1  0  0  0  0
 10 12  1  0  0  0  0
 11 15  1  0  0  0  0
 12 15  1  0  0  0  0
  1 16  1  0  0  0  0
  2 17  1  0  0  0  0
  3 18  1  0  0  0  0
  4 19  1  0  0  0  0
  5 20  1  0  0  0  0
  6 21  1  0  0  0  0
  7 22  1  0  0  0  0
 11 23  1  0  0  0  0
 11 24  1  0  0  0  0
 11 25  1  0  0  0  0
 12 26  1  0  0  0  0
 12 27  1  0  0  0  0
 15 28  1  0  0  0  0
M  END
$$$$
frag.vs.311
  -OEChem-01121112263D

 24 25  0     0  0  0  0  0  0999 V2000
    1.8851   -1.0363   -0.1124 C   0  0  0  0  0  0  0  0  0  0  0  0
    2.8783   -1.6520    2.0022 C   0  0  0  0  0  0  0  0  0  0  0  0
    0.8066   -0.4630    0.5610 C   0  0  0  0  0  0  0  0  0  0  0  0
    1.7997   -1.0786    2.6757 C   0  0  0  0  0  0  0  0  0  0  0  0
    4.4744   -1.7593   -1.3143 C   0  0  0  0  0  0  0  0  0  0  0  0
    4.7414   -3.2968    0.4238 C   0  0  0  0  0  0  0  0  0  0  0  0
    6.1157   -3.3302   -1.3865 C   0  0  0  0  0  0  0  0  0  0  0  0
    2.9210   -1.6309    0.6081 C   0  0  0  0  0  0  0  0  0  0  0  0
    4.0396   -2.2257   -0.0904 C   0  0  0  0  0  0  0  0  0  0  0  0
    0.7638   -0.4841    1.9551 C   0  0  0  0  0  0  0  0  0  0  0  0
   -0.3895    0.1286    2.6751 C   0  0  0  0  0  0  0  0  0  0  0  0
    5.5129   -2.2897   -1.9927 N   0  0  0  0  0  0  0  0  0  0  0  0
    5.7883   -3.8761   -0.1998 N   0  0  0  0  0  0  0  0  0  0  0  0
   -1.2388   -0.9001    3.1686 O   0  0  0  0  0  0  0  0  0  0  0  0
    1.9036   -1.0124   -1.1995 H   0  0  0  0  0  0  0  0  0  0  0  0
    3.6784   -2.1111    2.5780 H   0  0  0  0  0  0  0  0  0  0  0  0
    0.0034   -0.0030   -0.0085 H   0  0  0  0  0  0  0  0  0  0  0  0
    1.7748   -1.0991    3.7621 H   0  0  0  0  0  0  0  0  0  0  0  0
    3.9945   -0.9186   -1.8065 H   0  0  0  0  0  0  0  0  0  0  0  0
    4.4826   -3.7403    1.3808 H   0  0  0  0  0  0  0  0  0  0  0  0
    6.9531   -3.7761   -1.9092 H   0  0  0  0  0  0  0  0  0  0  0  0
   -0.0531    0.7423    3.5221 H   0  0  0  0  0  0  0  0  0  0  0  0
   -0.9730    0.7789    2.0091 H   0  0  0  0  0  0  0  0  0  0  0  0
   -1.9721   -0.4602    3.6277 H   0  0  0  0  0  0  0  0  0  0  0  0
  1  3  1  0  0  0  0
  1  8  2  0  0  0  0
  2  4  2  0  0  0  0
  2  8  1  0  0  0  0
  3 10  2  0  0  0  0
  4 10  1  0  0  0  0
  5  9  1  0  0  0  0
  5 12  2  0  0  0  0
  6  9  2  0  0  0  0
  6 13  1  0  0  0  0
  7 12  1  0  0  0  0
  7 13  2  0  0  0  0
  8  9  1  0  0  0  0
 10 11  1  0  0  0  0
 11 14  1  0  0  0  0
  1 15  1  0  0  0  0
  2 16  1  0  0  0  0
  3 17  1  0  0  0  0
  4 18  1  0  0  0  0
  5 19  1  0  0  0  0
  6 20  1  0  0  0  0
  7 21  1  0  0  0  0
 11 22  1  0  0  0  0
 11 23  1  0  0  0  0
 14 24  1  0  0  0  0
M  END
$$$$
frag.vs.312
  -OEChem-01121112263D

 23 24  0     0  0  0  0  0  0999 V2000
    1.8851   -1.0363   -0.1124 C   0  0  0  0  0  0  0  0  0  0  0  0
    0.8066   -0.4630    0.5610 C   0  0  0  0  0  0  0  0  0  0  0  0
    2.9210   -1.6309    0.6081 C   0  0  0  0  0  0  0  0  0  0  0  0
    1.7997   -1.0786    2.6757 C   0  0  0  0  0  0  0  0  0  0  0  0
   -2.1041   -2.3511    4.4120 C   0  0  0  0  0  0  0  0  0  0  0  0
   -2.5084   -1.2699    2.6728 C   0  0  0  0  0  0  0  0  0  0  0  0
    0.7638   -0.4841    1.9551 C   0  0  0  0  0  0  0  0  0  0  0  0
    2.8783   -1.6520    2.0022 C   0  0  0  0  0  0  0  0  0  0  0  0
   -0.3891    0.1295    2.6747 C   0  0  0  0  0  0  0  0  0  0  0  0
   -3.0387   -2.2043    3.4273 N   0  0  0  0  0  0  0  0  0  0  0  0
   -1.0290   -1.5662    4.3143 N   0  0  0  0  0  0  0  0  0  0  0  0
   -1.3126   -0.8849    3.1938 N   0  0  0  0  0  0  0  0  0  0  0  0
    3.9255   -2.2535    2.7307 N   0  0  0  0  0  0  0  0  0  0  0  0
    1.9183   -1.0199   -1.1981 H   0  0  0  0  0  0  0  0  0  0  0  0
    0.0037   -0.0019   -0.0086 H   0  0  0  0  0  0  0  0  0  0  0  0
    3.7566   -2.0749    0.0732 H   0  0  0  0  0  0  0  0  0  0  0  0
    1.7647   -1.0945    3.7626 H   0  0  0  0  0  0  0  0  0  0  0  0
   -2.2087   -3.0532    5.2256 H   0  0  0  0  0  0  0  0  0  0  0  0
   -2.9308   -0.8525    1.7698 H   0  0  0  0  0  0  0  0  0  0  0  0
   -0.0593    0.7466    3.5258 H   0  0  0  0  0  0  0  0  0  0  0  0
   -0.9675    0.8034    2.0225 H   0  0  0  0  0  0  0  0  0  0  0  0
    4.6691   -2.7027    2.2355 H   0  0  0  0  0  0  0  0  0  0  0  0
    3.8601   -2.3038    3.7273 H   0  0  0  0  0  0  0  0  0  0  0  0
  1  2  1  0  0  0  0
  1  3  2  0  0  0  0
  2  7  2  0  0  0  0
  3  8  1  0  0  0  0
  4  7  1  0  0  0  0
  4  8  2  0  0  0  0
  5 10  1  0  0  0  0
  5 11  2  0  0  0  0
  6 10  2  0  0  0  0
  6 12  1  0  0  0  0
  7  9  1  0  0  0  0
  8 13  1  0  0  0  0
  9 12  1  0  0  0  0
 11 12  1  0  0  0  0
  1 14  1  0  0  0  0
  2 15  1  0  0  0  0
  3 16  1  0  0  0  0
  4 17  1  0  0  0  0
  5 18  1  0  0  0  0
  6 19  1  0  0  0  0
  9 20  1  0  0  0  0
  9 21  1  0  0  0  0
 13 22  1  0  0  0  0
 13 23  1  0  0  0  0
M  END
$$$$
frag.vs.313
  -OEChem-01121112263D

 23 24  0     0  0  0  0  0  0999 V2000
    1.8851   -1.0363   -0.1124 C   0  0  0  0  0  0  0  0  0  0  0  0
    2.8783   -1.6520    2.0022 C   0  0  0  0  0  0  0  0  0  0  0  0
    0.8066   -0.4630    0.5610 C   0  0  0  0  0  0  0  0  0  0  0  0
    1.7997   -1.0786    2.6757 C   0  0  0  0  0  0  0  0  0  0  0  0
    2.9387   -4.9286   -2.0131 C   0  0  0  0  0  0  0  0  0  0  0  0
    4.0210   -4.7806   -0.2344 C   0  0  0  0  0  0  0  0  0  0  0  0
    2.9210   -1.6309    0.6081 C   0  0  0  0  0  0  0  0  0  0  0  0
    0.7638   -0.4841    1.9551 C   0  0  0  0  0  0  0  0  0  0  0  0
    4.0744   -2.2445   -0.1110 C   0  0  0  0  0  0  0  0  0  0  0  0
    3.5342   -5.6889   -1.0477 N   0  0  0  0  0  0  0  0  0  0  0  0
    3.0265   -3.6071   -1.8484 N   0  0  0  0  0  0  0  0  0  0  0  0
    3.7232   -3.5393   -0.7037 N   0  0  0  0  0  0  0  0  0  0  0  0
   -0.3256    0.0971    2.6364 N   0  0  0  0  0  0  0  0  0  0  0  0
    1.9098   -1.0163   -1.1986 H   0  0  0  0  0  0  0  0  0  0  0  0
    3.6798   -2.1144    2.5719 H   0  0  0  0  0  0  0  0  0  0  0  0
    0.0040   -0.0036   -0.0102 H   0  0  0  0  0  0  0  0  0  0  0  0
    1.7764   -1.1014    3.7621 H   0  0  0  0  0  0  0  0  0  0  0  0
    2.4230   -5.3507   -2.8627 H   0  0  0  0  0  0  0  0  0  0  0  0
    4.5746   -4.9598    0.6764 H   0  0  0  0  0  0  0  0  0  0  0  0
    4.4435   -1.5960   -0.9216 H   0  0  0  0  0  0  0  0  0  0  0  0
    4.9346   -2.4071    0.5579 H   0  0  0  0  0  0  0  0  0  0  0  0
   -1.0376    0.5627    2.1108 H   0  0  0  0  0  0  0  0  0  0  0  0
   -0.3211    0.1169    3.6362 H   0  0  0  0  0  0  0  0  0  0  0  0
  1  3  1  0  0  0  0
  1  7  2  0  0  0  0
  2  4  2  0  0  0  0
  2  7  1  0  0  0  0
  3  8  2  0  0  0  0
  4  8  1  0  0  0  0
  5 10  1  0  0  0  0
  5 11  2  0  0  0  0
  6 10  2  0  0  0  0
  6 12  1  0  0  0  0
  7  9  1  0  0  0  0
  8 13  1  0  0  0  0
  9 12  1  0  0  0  0
 11 12  1  0  0  0  0
  1 14  1  0  0  0  0
  2 15  1  0  0  0  0
  3 16  1  0  0  0  0
  4 17  1  0  0  0  0
  5 18  1  0  0  0  0
  6 19  1  0  0  0  0
  9 20  1  0  0  0  0
  9 21  1  0  0  0  0
 13 22  1  0  0  0  0
 13 23  1  0  0  0  0
M  END
$$$$
frag.vs.314
  -OEChem-01121112263D

 18 19  0     0  0  0  0  0  0999 V2000
    0.8726    1.2794    1.5062 C   0  0  0  0  0  0  0  0  0  0  0  0
   -0.1481    0.4787    0.9641 C   0  0  0  0  0  0  0  0  0  0  0  0
    0.7042    1.9049    2.7438 C   0  0  0  0  0  0  0  0  0  0  0  0
   -1.3491    0.2943    1.6535 C   0  0  0  0  0  0  0  0  0  0  0  0
   -0.4910    1.7067    3.4041 C   0  0  0  0  0  0  0  0  0  0  0  0
   -1.4901    0.9230    2.8735 C   0  0  0  0  0  0  0  0  0  0  0  0
   -2.4047   -0.5327    1.0940 C   0  0  0  0  0  0  0  0  0  0  0  0
   -2.1588    1.6916    4.7825 C   0  0  0  0  0  0  0  0  0  0  0  0
   -3.4985   -0.7561    1.6248 O   0  0  0  0  0  0  0  0  0  0  0  0
   -0.8328    2.2326    4.6117 O   0  0  0  0  0  0  0  0  0  0  0  0
   -2.5825    0.8600    3.6827 O   0  0  0  0  0  0  0  0  0  0  0  0
   -2.0687   -1.0597   -0.1159 O   0  0  0  0  0  0  0  0  0  0  0  0
    1.8003    1.4132    0.9560 H   0  0  0  0  0  0  0  0  0  0  0  0
    0.0100    0.0034   -0.0013 H   0  0  0  0  0  0  0  0  0  0  0  0
    1.4890    2.5228    3.1649 H   0  0  0  0  0  0  0  0  0  0  0  0
   -2.1788    1.0949    5.7015 H   0  0  0  0  0  0  0  0  0  0  0  0
   -2.8658    2.5227    4.8858 H   0  0  0  0  0  0  0  0  0  0  0  0
   -2.7756   -1.6192   -0.5027 H   0  0  0  0  0  0  0  0  0  0  0  0
  1  2  1  0  0  0  0
  1  3  2  0  0  0  0
  2  4  2  0  0  0  0
  3  5  1  0  0  0  0
  4  6  1  0  0  0  0
  4  7  1  0  0  0  0
  5  6  2  0  0  0  0
  5 10  1  0  0  0  0
  6 11  1  0  0  0  0
  7  9  2  0  0  0  0
  7 12  1  0  0  0  0
  8 10  1  0  0  0  0
  8 11  1  0  0  0  0
  1 13  1  0  0  0  0
  2 14  1  0  0  0  0
  3 15  1  0  0  0  0
  8 16  1  0  0  0  0
  8 17  1  0  0  0  0
 12 18  1  0  0  0  0
M  END
$$$$
frag.vs.315
  -OEChem-01121112263D

 32 33  0     0  0  0  0  0  0999 V2000
    0.8259   -2.8788    0.9496 C   0  0  0  0  0  0  0  0  0  0  0  0
   -1.0261   -3.2998   -0.5437 C   0  0  0  0  0  0  0  0  0  0  0  0
    0.1516   -3.5440    1.9735 C   0  0  0  0  0  0  0  0  0  0  0  0
   -1.7004   -3.9651    0.4802 C   0  0  0  0  0  0  0  0  0  0  0  0
    0.2370   -2.7566   -0.3090 C   0  0  0  0  0  0  0  0  0  0  0  0
   -1.1115   -4.0872    1.7388 C   0  0  0  0  0  0  0  0  0  0  0  0
    0.6677   -0.5045   -3.2485 C   0  0  0  0  0  0  0  0  0  0  0  0
    0.3195    0.2456   -0.9869 C   0  0  0  0  0  0  0  0  0  0  0  0
   -0.1268    0.7019   -3.7407 C   0  0  0  0  0  0  0  0  0  0  0  0
   -0.4677    1.4336   -1.5324 C   0  0  0  0  0  0  0  0  0  0  0  0
    0.9621   -2.0406   -1.4116 C   0  0  0  0  0  0  0  0  0  0  0  0
   -1.8311   -4.7999    2.8336 C   0  0  0  0  0  0  0  0  0  0  0  0
    0.2058   -0.8932   -1.9086 N   0  0  0  0  0  0  0  0  0  0  0  0
    0.0096    1.7929   -2.8294 O   0  0  0  0  0  0  0  0  0  0  0  0
   -2.8716   -3.9692    3.3339 O   0  0  0  0  0  0  0  0  0  0  0  0
    1.8095   -2.4581    1.1416 H   0  0  0  0  0  0  0  0  0  0  0  0
   -1.4917   -3.2101   -1.5217 H   0  0  0  0  0  0  0  0  0  0  0  0
    0.6187   -3.6358    2.9504 H   0  0  0  0  0  0  0  0  0  0  0  0
   -2.6843   -4.3852    0.2889 H   0  0  0  0  0  0  0  0  0  0  0  0
    0.5306   -1.3327   -3.9530 H   0  0  0  0  0  0  0  0  0  0  0  0
    1.7358   -0.2521   -3.2236 H   0  0  0  0  0  0  0  0  0  0  0  0
    1.3725    0.5312   -0.8637 H   0  0  0  0  0  0  0  0  0  0  0  0
   -0.0775   -0.0223   -0.0011 H   0  0  0  0  0  0  0  0  0  0  0  0
    0.2572    1.0299   -4.7119 H   0  0  0  0  0  0  0  0  0  0  0  0
   -1.1895    0.4619   -3.8681 H   0  0  0  0  0  0  0  0  0  0  0  0
   -1.5419    1.2179   -1.5841 H   0  0  0  0  0  0  0  0  0  0  0  0
   -0.3354    2.3007   -0.8774 H   0  0  0  0  0  0  0  0  0  0  0  0
    1.9348   -1.6776   -1.0620 H   0  0  0  0  0  0  0  0  0  0  0  0
    1.1498   -2.7099   -2.2578 H   0  0  0  0  0  0  0  0  0  0  0  0
   -2.2735   -5.7401    2.4768 H   0  0  0  0  0  0  0  0  0  0  0  0
   -1.1505   -5.0491    3.6592 H   0  0  0  0  0  0  0  0  0  0  0  0
   -3.3118   -4.4683    4.0404 H   0  0  0  0  0  0  0  0  0  0  0  0
  1  3  1  0  0  0  0
  1  5  2  0  0  0  0
  2  4  2  0  0  0  0
  2  5  1  0  0  0  0
  3  6  2  0  0  0  0
  4  6  1  0  0  0  0
  5 11  1  0  0  0  0
  6 12  1  0  0  0  0
  7  9  1  0  0  0  0
  7 13  1  0  0  0  0
  8 10  1  0  0  0  0
  8 13  1  0  0  0  0
  9 14  1  0  0  0  0
 10 14  1  0  0  0  0
 11 13  1  0  0  0  0
 12 15  1  0  0  0  0
  1 16  1  0  0  0  0
  2 17  1  0  0  0  0
  3 18  1  0  0  0  0
  4 19  1  0  0  0  0
  7 20  1  0  0  0  0
  7 21  1  0  0  0  0
  8 22  1  0  0  0  0
  8 23  1  0  0  0  0
  9 24  1  0  0  0  0
  9 25  1  0  0  0  0
 10 26  1  0  0  0  0
 10 27  1  0  0  0  0
 11 28  1  0  0  0  0
 11 29  1  0  0  0  0
 12 30  1  0  0  0  0
 12 31  1  0  0  0  0
 15 32  1  0  0  0  0
M  END
$$$$
frag.vs.316
  -OEChem-01121112263D

 23 24  0     0  0  0  0  0  0999 V2000
    1.8306   -1.1949    0.0273 C   0  0  0  0  0  0  0  0  0  0  0  0
    0.6582   -0.7539   -0.5609 C   0  0  0  0  0  0  0  0  0  0  0  0
    6.1607   -2.4419    0.1482 C   0  0  0  0  0  0  0  0  0  0  0  0
    5.3184   -2.9067    1.1760 C   0  0  0  0  0  0  0  0  0  0  0  0
    5.3086   -1.8546   -0.7548 C   0  0  0  0  0  0  0  0  0  0  0  0
    2.8745   -1.5530   -0.8019 C   0  0  0  0  0  0  0  0  0  0  0  0
    0.6075   -0.6998   -1.9393 C   0  0  0  0  0  0  0  0  0  0  0  0
    5.7106   -3.6209    2.4025 C   0  0  0  0  0  0  0  0  0  0  0  0
    5.5860   -1.1867   -2.0416 C   0  0  0  0  0  0  0  0  0  0  0  0
    4.0301   -2.6376    0.9481 N   0  0  0  0  0  0  0  0  0  0  0  0
    2.7969   -1.4900   -2.1481 N   0  0  0  0  0  0  0  0  0  0  0  0
    1.6448   -1.0562   -2.7261 N   0  0  0  0  0  0  0  0  0  0  0  0
    4.0565   -1.9974   -0.2332 N   0  0  0  0  0  0  0  0  0  0  0  0
   -0.7934   -0.1699   -2.7700 Cl  0  0  0  0  0  0  0  0  0  0  0  0
    1.9104   -1.2523    1.1082 H   0  0  0  0  0  0  0  0  0  0  0  0
   -0.1872   -0.4630    0.0535 H   0  0  0  0  0  0  0  0  0  0  0  0
    7.2356   -2.5220    0.0721 H   0  0  0  0  0  0  0  0  0  0  0  0
    5.9199   -2.9173    3.2265 H   0  0  0  0  0  0  0  0  0  0  0  0
    4.9251   -4.3155    2.7503 H   0  0  0  0  0  0  0  0  0  0  0  0
    6.6150   -4.2381    2.2548 H   0  0  0  0  0  0  0  0  0  0  0  0
    5.5587   -1.9059   -2.8765 H   0  0  0  0  0  0  0  0  0  0  0  0
    4.8540   -0.3907   -2.2609 H   0  0  0  0  0  0  0  0  0  0  0  0
    6.5765   -0.7004   -2.0503 H   0  0  0  0  0  0  0  0  0  0  0  0
  1  2  2  0  0  0  0
  1  6  1  0  0  0  0
  2  7  1  0  0  0  0
  3  4  1  0  0  0  0
  3  5  2  0  0  0  0
  4  8  1  0  0  0  0
  4 10  2  0  0  0  0
  5  9  1  0  0  0  0
  5 13  1  0  0  0  0
  6 11  2  0  0  0  0
  6 13  1  0  0  0  0
  7 12  2  0  0  0  0
  7 14  1  0  0  0  0
 10 13  1  0  0  0  0
 11 12  1  0  0  0  0
  1 15  1  0  0  0  0
  2 16  1  0  0  0  0
  3 17  1  0  0  0  0
  8 18  1  0  0  0  0
  8 19  1  0  0  0  0
  8 20  1  0  0  0  0
  9 21  1  0  0  0  0
  9 22  1  0  0  0  0
  9 23  1  0  0  0  0
M  END
$$$$
frag.vs.317
  -OEChem-01121112263D

 29 31  0     0  0  0  0  0  0999 V2000
    5.6585   -0.4881    0.4515 C   0  0  0  0  0  0  0  0  0  0  0  0
    5.9834   -0.5754   -0.9061 C   0  0  0  0  0  0  0  0  0  0  0  0
    3.7369   -1.3368   -1.4754 C   0  0  0  0  0  0  0  0  0  0  0  0
    3.3972   -1.2541   -0.1170 C   0  0  0  0  0  0  0  0  0  0  0  0
    4.3550   -0.8381    0.7912 C   0  0  0  0  0  0  0  0  0  0  0  0
    5.0422   -0.9916   -1.8535 C   0  0  0  0  0  0  0  0  0  0  0  0
    2.2630   -1.4904    0.6837 C   0  0  0  0  0  0  0  0  0  0  0  0
   -0.2091   -0.9341    0.5360 C   0  0  0  0  0  0  0  0  0  0  0  0
    0.5184   -3.3255    0.8597 C   0  0  0  0  0  0  0  0  0  0  0  0
   -1.5836   -1.4616    0.1238 C   0  0  0  0  0  0  0  0  0  0  0  0
   -0.8856   -3.7565    0.4348 C   0  0  0  0  0  0  0  0  0  0  0  0
    0.8893   -1.9681    0.2415 C   0  0  0  0  0  0  0  0  0  0  0  0
    2.4925   -1.2443    1.9769 N   0  0  0  0  0  0  0  0  0  0  0  0
   -1.8831   -2.7399    0.7699 N   0  0  0  0  0  0  0  0  0  0  0  0
    3.8177   -0.8317    2.0418 O   0  0  0  0  0  0  0  0  0  0  0  0
    5.3936   -1.0623   -3.1450 F   0  0  0  0  0  0  0  0  0  0  0  0
    6.3805   -0.1682    1.1929 H   0  0  0  0  0  0  0  0  0  0  0  0
    6.9881   -0.3157   -1.2305 H   0  0  0  0  0  0  0  0  0  0  0  0
    3.0170   -1.6577   -2.2215 H   0  0  0  0  0  0  0  0  0  0  0  0
   -0.0007    0.0007    0.0011 H   0  0  0  0  0  0  0  0  0  0  0  0
   -0.2174   -0.6859    1.6062 H   0  0  0  0  0  0  0  0  0  0  0  0
    0.5684   -3.2678    1.9557 H   0  0  0  0  0  0  0  0  0  0  0  0
    1.2440   -4.0899    0.5545 H   0  0  0  0  0  0  0  0  0  0  0  0
   -2.3526   -0.7336    0.4046 H   0  0  0  0  0  0  0  0  0  0  0  0
   -1.6387   -1.5728   -0.9659 H   0  0  0  0  0  0  0  0  0  0  0  0
   -0.9117   -3.9637   -0.6421 H   0  0  0  0  0  0  0  0  0  0  0  0
   -1.1484   -4.6917    0.9409 H   0  0  0  0  0  0  0  0  0  0  0  0
    0.9487   -2.0992   -0.8588 H   0  0  0  0  0  0  0  0  0  0  0  0
   -1.8907   -2.6051    1.7812 H   0  0  0  0  0  0  0  0  0  0  0  0
  1  2  1  0  0  0  0
  1  5  2  0  0  0  0
  2  6  2  0  0  0  0
  3  4  2  0  0  0  0
  3  6  1  0  0  0  0
  4  5  1  0  0  0  0
  4  7  1  0  0  0  0
  5 15  1  0  0  0  0
  6 16  1  0  0  0  0
  7 12  1  0  0  0  0
  7 13  2  0  0  0  0
  8 10  1  0  0  0  0
  8 12  1  0  0  0  0
  9 11  1  0  0  0  0
  9 12  1  0  0  0  0
 10 14  1  0  0  0  0
 11 14  1  0  0  0  0
 13 15  1  0  0  0  0
  1 17  1  0  0  0  0
  2 18  1  0  0  0  0
  3 19  1  0  0  0  0
  8 20  1  0  0  0  0
  8 21  1  0  0  0  0
  9 22  1  0  0  0  0
  9 23  1  0  0  0  0
 10 24  1  0  0  0  0
 10 25  1  0  0  0  0
 11 26  1  0  0  0  0
 11 27  1  0  0  0  0
 12 28  1  0  0  0  0
 14 29  1  0  0  0  0
M  END
$$$$
frag.vs.318
  -OEChem-01121112263D

 23 24  0     0  0  0  0  0  0999 V2000
    1.9431   -0.9280   -0.0056 C   0  0  0  0  0  0  0  0  0  0  0  0
    1.0078    0.0264   -0.4042 C   0  0  0  0  0  0  0  0  0  0  0  0
    3.2402   -0.8999   -0.5217 C   0  0  0  0  0  0  0  0  0  0  0  0
    1.3651    1.0144   -1.3210 C   0  0  0  0  0  0  0  0  0  0  0  0
    3.5995    0.0893   -1.4406 C   0  0  0  0  0  0  0  0  0  0  0  0
    2.6642    1.0414   -1.8369 C   0  0  0  0  0  0  0  0  0  0  0  0
    4.9496    0.1853   -2.0314 C   0  0  0  0  0  0  0  0  0  0  0  0
    3.0654    2.0739   -2.8058 C   0  0  0  0  0  0  0  0  0  0  0  0
    5.7938   -2.1578   -2.2761 C   0  0  0  0  0  0  0  0  0  0  0  0
    6.0000   -0.8247   -1.6340 C   0  0  0  0  0  0  0  0  0  0  0  0
    5.2908    1.0994   -2.8850 N   0  0  0  0  0  0  0  0  0  0  0  0
    4.3666    2.0151   -3.2564 N   0  0  0  0  0  0  0  0  0  0  0  0
    2.2639    2.9276   -3.1737 O   0  0  0  0  0  0  0  0  0  0  0  0
    4.9071   -2.4587   -3.0613 O   0  0  0  0  0  0  0  0  0  0  0  0
    6.7549   -3.0182   -1.8543 O   0  0  0  0  0  0  0  0  0  0  0  0
    1.6614   -1.6964    0.7088 H   0  0  0  0  0  0  0  0  0  0  0  0
    0.0000    0.0001    0.0002 H   0  0  0  0  0  0  0  0  0  0  0  0
    3.9437   -1.6575   -0.1909 H   0  0  0  0  0  0  0  0  0  0  0  0
    0.6226    1.7493   -1.6191 H   0  0  0  0  0  0  0  0  0  0  0  0
    5.9443   -0.9268   -0.5522 H   0  0  0  0  0  0  0  0  0  0  0  0
    6.9612   -0.4157   -1.9383 H   0  0  0  0  0  0  0  0  0  0  0  0
    4.6571    2.7208   -3.9258 H   0  0  0  0  0  0  0  0  0  0  0  0
    6.6516   -3.9076   -2.2550 H   0  0  0  0  0  0  0  0  0  0  0  0
  1  2  1  0  0  0  0
  1  3  2  0  0  0  0
  2  4  2  0  0  0  0
  3  5  1  0  0  0  0
  4  6  1  0  0  0  0
  5  6  2  0  0  0  0
  5  7  1  0  0  0  0
  6  8  1  0  0  0  0
  7 10  1  0  0  0  0
  7 11  2  0  0  0  0
  8 12  1  0  0  0  0
  8 13  2  0  0  0  0
  9 10  1  0  0  0  0
  9 14  2  0  0  0  0
  9 15  1  0  0  0  0
 11 12  1  0  0  0  0
  1 16  1  0  0  0  0
  2 17  1  0  0  0  0
  3 18  1  0  0  0  0
  4 19  1  0  0  0  0
 10 20  1  0  0  0  0
 10 21  1  0  0  0  0
 12 22  1  0  0  0  0
 15 23  1  0  0  0  0
M  END
$$$$
frag.vs.319
  -OEChem-01121112263D

 19 20  0     0  0  0  0  0  0999 V2000
   -0.7687   -1.6889   -2.9470 C   0  0  0  0  0  0  0  0  0  0  0  0
   -0.8264   -0.7068   -2.0362 C   0  0  0  0  0  0  0  0  0  0  0  0
   -1.7360    0.4475   -2.2741 C   0  0  0  0  0  0  0  0  0  0  0  0
   -2.2541   -0.7235   -4.3283 C   0  0  0  0  0  0  0  0  0  0  0  0
    0.0313   -0.8205   -0.7960 C   0  0  0  0  0  0  0  0  0  0  0  0
   -3.3951    1.3362   -3.9141 C   0  0  0  0  0  0  0  0  0  0  0  0
   -3.5502    1.2177   -5.4189 C   0  0  0  0  0  0  0  0  0  0  0  0
   -1.4823   -1.7385   -4.1210 N   0  0  0  0  0  0  0  0  0  0  0  0
   -2.4084    0.3612   -3.4832 N   0  0  0  0  0  0  0  0  0  0  0  0
   -1.8517    1.3495   -1.4508 O   0  0  0  0  0  0  0  0  0  0  0  0
    0.3611   -1.8726   -0.2789 O   0  0  0  0  0  0  0  0  0  0  0  0
    0.3660    0.4129   -0.3624 O   0  0  0  0  0  0  0  0  0  0  0  0
   -3.2488   -0.5427   -5.7515 S   0  0  0  0  0  0  0  0  0  0  0  0
   -0.1163   -2.5440   -2.7942 H   0  0  0  0  0  0  0  0  0  0  0  0
   -3.0983    2.3446   -3.6074 H   0  0  0  0  0  0  0  0  0  0  0  0
   -4.3348    1.0981   -3.4004 H   0  0  0  0  0  0  0  0  0  0  0  0
   -4.5361    1.5384   -5.7646 H   0  0  0  0  0  0  0  0  0  0  0  0
   -2.7817    1.8018   -5.9350 H   0  0  0  0  0  0  0  0  0  0  0  0
    0.9242    0.3797    0.4436 H   0  0  0  0  0  0  0  0  0  0  0  0
  1  2  2  0  0  0  0
  1  8  1  0  0  0  0
  2  3  1  0  0  0  0
  2  5  1  0  0  0  0
  3  9  1  0  0  0  0
  3 10  2  0  0  0  0
  4  8  2  0  0  0  0
  4  9  1  0  0  0  0
  4 13  1  0  0  0  0
  5 11  2  0  0  0  0
  5 12  1  0  0  0  0
  6  7  1  0  0  0  0
  6  9  1  0  0  0  0
  7 13  1  0  0  0  0
  1 14  1  0  0  0  0
  6 15  1  0  0  0  0
  6 16  1  0  0  0  0
  7 17  1  0  0  0  0
  7 18  1  0  0  0  0
 12 19  1  0  0  0  0
M  END
$$$$
frag.vs.320
  -OEChem-01121112263D

 25 26  0     0  0  0  0  0  0999 V2000
   -0.7687   -1.6889   -2.9470 C   0  0  0  0  0  0  0  0  0  0  0  0
   -0.8264   -0.7068   -2.0362 C   0  0  0  0  0  0  0  0  0  0  0  0
   -1.7360    0.4475   -2.2741 C   0  0  0  0  0  0  0  0  0  0  0  0
   -2.2541   -0.7235   -4.3283 C   0  0  0  0  0  0  0  0  0  0  0  0
    0.0313   -0.8205   -0.7960 C   0  0  0  0  0  0  0  0  0  0  0  0
   -3.3951    1.3362   -3.9141 C   0  0  0  0  0  0  0  0  0  0  0  0
   -3.5502    1.2177   -5.4189 C   0  0  0  0  0  0  0  0  0  0  0  0
    1.4496    1.9376    1.1338 C   0  0  0  0  0  0  0  0  0  0  0  0
    1.1748    0.4876    0.7968 C   0  0  0  0  0  0  0  0  0  0  0  0
   -1.4823   -1.7385   -4.1210 N   0  0  0  0  0  0  0  0  0  0  0  0
   -2.4084    0.3612   -3.4832 N   0  0  0  0  0  0  0  0  0  0  0  0
   -1.8517    1.3495   -1.4508 O   0  0  0  0  0  0  0  0  0  0  0  0
    0.3523   -1.8850   -0.2910 O   0  0  0  0  0  0  0  0  0  0  0  0
    0.3576    0.4284   -0.3768 O   0  0  0  0  0  0  0  0  0  0  0  0
   -3.2488   -0.5427   -5.7515 S   0  0  0  0  0  0  0  0  0  0  0  0
   -0.1163   -2.5440   -2.7942 H   0  0  0  0  0  0  0  0  0  0  0  0
   -3.0983    2.3446   -3.6074 H   0  0  0  0  0  0  0  0  0  0  0  0
   -4.3348    1.0981   -3.4004 H   0  0  0  0  0  0  0  0  0  0  0  0
   -4.5361    1.5384   -5.7646 H   0  0  0  0  0  0  0  0  0  0  0  0
   -2.7817    1.8018   -5.9350 H   0  0  0  0  0  0  0  0  0  0  0  0
    1.9776    2.4351    0.3155 H   0  0  0  0  0  0  0  0  0  0  0  0
    0.5143    2.4728    1.3280 H   0  0  0  0  0  0  0  0  0  0  0  0
    2.0549    2.0144    2.0431 H   0  0  0  0  0  0  0  0  0  0  0  0
    0.6466   -0.0040    1.6192 H   0  0  0  0  0  0  0  0  0  0  0  0
    2.1103   -0.0454    0.6023 H   0  0  0  0  0  0  0  0  0  0  0  0
  1  2  2  0  0  0  0
  1 10  1  0  0  0  0
  2  3  1  0  0  0  0
  2  5  1  0  0  0  0
  3 11  1  0  0  0  0
  3 12  2  0  0  0  0
  4 10  2  0  0  0  0
  4 11  1  0  0  0  0
  4 15  1  0  0  0  0
  5 13  2  0  0  0  0
  5 14  1  0  0  0  0
  6  7  1  0  0  0  0
  6 11  1  0  0  0  0
  7 15  1  0  0  0  0
  8  9  1  0  0  0  0
  9 14  1  0  0  0  0
  1 16  1  0  0  0  0
  6 17  1  0  0  0  0
  6 18  1  0  0  0  0
  7 19  1  0  0  0  0
  7 20  1  0  0  0  0
  8 21  1  0  0  0  0
  8 22  1  0  0  0  0
  8 23  1  0  0  0  0
  9 24  1  0  0  0  0
  9 25  1  0  0  0  0
M  END
$$$$
frag.vs.321
  -OEChem-01121112263D

 28 29  0     0  0  0  0  0  0999 V2000
   -5.1079    0.7637   -0.1906 C   0  0  0  0  0  0  0  0  0  0  0  0
   -4.3887    0.4207    0.9543 C   0  0  0  0  0  0  0  0  0  0  0  0
   -4.4330    1.0749   -1.3710 C   0  0  0  0  0  0  0  0  0  0  0  0
   -2.9947    0.3892    0.9189 C   0  0  0  0  0  0  0  0  0  0  0  0
   -3.0389    1.0434   -1.4065 C   0  0  0  0  0  0  0  0  0  0  0  0
   -2.3197    0.7005   -0.2615 C   0  0  0  0  0  0  0  0  0  0  0  0
    0.2317    4.0430    0.0906 C   0  0  0  0  0  0  0  0  0  0  0  0
    0.7909    4.4794   -1.1911 C   0  0  0  0  0  0  0  0  0  0  0  0
    0.7861    3.5737   -2.1710 C   0  0  0  0  0  0  0  0  0  0  0  0
    0.2378    2.2102   -1.9351 C   0  0  0  0  0  0  0  0  0  0  0  0
    0.2839    6.6846   -1.6988 C   0  0  0  0  0  0  0  0  0  0  0  0
   -0.8192    0.6669   -0.3003 C   0  0  0  0  0  0  0  0  0  0  0  0
   -0.2566    2.8789    0.3529 N   0  0  0  0  0  0  0  0  0  0  0  0
   -0.2553    1.9582   -0.6579 N   0  0  0  0  0  0  0  0  0  0  0  0
    0.2398    1.3826   -2.8470 O   0  0  0  0  0  0  0  0  0  0  0  0
    1.2675    5.7612   -1.2877 O   0  0  0  0  0  0  0  0  0  0  0  0
    1.4057    3.9243   -3.7400 Cl  0  0  0  0  0  0  0  0  0  0  0  0
   -6.1934    0.7869   -0.1632 H   0  0  0  0  0  0  0  0  0  0  0  0
   -4.9141    0.1773    1.8732 H   0  0  0  0  0  0  0  0  0  0  0  0
   -4.9926    1.3409   -2.2629 H   0  0  0  0  0  0  0  0  0  0  0  0
   -2.4426    0.1210    1.8158 H   0  0  0  0  0  0  0  0  0  0  0  0
   -2.5216    1.2875   -2.3305 H   0  0  0  0  0  0  0  0  0  0  0  0
    0.2397    4.7994    0.8925 H   0  0  0  0  0  0  0  0  0  0  0  0
    0.7226    7.6837   -1.7568 H   0  0  0  0  0  0  0  0  0  0  0  0
   -0.5434    6.6791   -0.9846 H   0  0  0  0  0  0  0  0  0  0  0  0
   -0.0866    6.3940   -2.6847 H   0  0  0  0  0  0  0  0  0  0  0  0
   -0.4141    0.3808    0.6764 H   0  0  0  0  0  0  0  0  0  0  0  0
   -0.4613   -0.0681   -1.0289 H   0  0  0  0  0  0  0  0  0  0  0  0
  1  2  1  0  0  0  0
  1  3  2  0  0  0  0
  2  4  2  0  0  0  0
  3  5  1  0  0  0  0
  4  6  1  0  0  0  0
  5  6  2  0  0  0  0
  6 12  1  0  0  0  0
  7  8  1  0  0  0  0
  7 13  2  0  0  0  0
  8  9  2  0  0  0  0
  8 16  1  0  0  0  0
  9 10  1  0  0  0  0
  9 17  1  0  0  0  0
 10 14  1  0  0  0  0
 10 15  2  0  0  0  0
 11 16  1  0  0  0  0
 12 14  1  0  0  0  0
 13 14  1  0  0  0  0
  1 18  1  0  0  0  0
  2 19  1  0  0  0  0
  3 20  1  0  0  0  0
  4 21  1  0  0  0  0
  5 22  1  0  0  0  0
  7 23  1  0  0  0  0
 11 24  1  0  0  0  0
 11 25  1  0  0  0  0
 11 26  1  0  0  0  0
 12 27  1  0  0  0  0
 12 28  1  0  0  0  0
M  END
$$$$
frag.vs.322
  -OEChem-01121112263D

 22 23  0     0  0  0  0  0  0999 V2000
    1.9317   -0.7598   -0.0974 C   0  0  0  0  0  0  0  0  0  0  0  0
    0.8443   -0.2339    0.6003 C   0  0  0  0  0  0  0  0  0  0  0  0
    2.9607   -1.3991    0.5940 C   0  0  0  0  0  0  0  0  0  0  0  0
    0.7861   -0.3472    1.9893 C   0  0  0  0  0  0  0  0  0  0  0  0
    2.9025   -1.5124    1.9830 C   0  0  0  0  0  0  0  0  0  0  0  0
    1.8152   -0.9864    2.6807 C   0  0  0  0  0  0  0  0  0  0  0  0
    2.0890   -1.9477    6.0204 C   0  0  0  0  0  0  0  0  0  0  0  0
    1.1182   -0.1624    4.8821 C   0  0  0  0  0  0  0  0  0  0  0  0
    1.3089   -0.6907    6.2721 C   0  0  0  0  0  0  0  0  0  0  0  0
    2.3217   -2.1425    4.7584 N   0  0  0  0  0  0  0  0  0  0  0  0
    1.7567   -1.0998    4.0701 N   0  0  0  0  0  0  0  0  0  0  0  0
    2.4660   -2.7329    7.0703 N   0  0  0  0  0  0  0  0  0  0  0  0
    0.5304    0.8608    4.5753 O   0  0  0  0  0  0  0  0  0  0  0  0
    1.9770   -0.6724   -1.1791 H   0  0  0  0  0  0  0  0  0  0  0  0
    0.0425    0.2632    0.0623 H   0  0  0  0  0  0  0  0  0  0  0  0
    3.8068   -1.8094    0.0503 H   0  0  0  0  0  0  0  0  0  0  0  0
   -0.0663    0.0665    2.5224 H   0  0  0  0  0  0  0  0  0  0  0  0
    3.7103   -2.0128    2.5112 H   0  0  0  0  0  0  0  0  0  0  0  0
    0.3467   -0.9203    6.7346 H   0  0  0  0  0  0  0  0  0  0  0  0
    1.8902    0.0091    6.8761 H   0  0  0  0  0  0  0  0  0  0  0  0
    2.2122   -2.4514    7.9922 H   0  0  0  0  0  0  0  0  0  0  0  0
    2.9837   -3.5639    6.8833 H   0  0  0  0  0  0  0  0  0  0  0  0
  1  2  1  0  0  0  0
  1  3  2  0  0  0  0
  2  4  2  0  0  0  0
  3  5  1  0  0  0  0
  4  6  1  0  0  0  0
  5  6  2  0  0  0  0
  6 11  1  0  0  0  0
  7  9  1  0  0  0  0
  7 10  2  0  0  0  0
  7 12  1  0  0  0  0
  8  9  1  0  0  0  0
  8 11  1  0  0  0  0
  8 13  2  0  0  0  0
 10 11  1  0  0  0  0
  1 14  1  0  0  0  0
  2 15  1  0  0  0  0
  3 16  1  0  0  0  0
  4 17  1  0  0  0  0
  5 18  1  0  0  0  0
  9 19  1  0  0  0  0
  9 20  1  0  0  0  0
 12 21  1  0  0  0  0
 12 22  1  0  0  0  0
M  END
$$$$
frag.vs.323_0
  -OEChem-01121112263D

 30 31  0     1  0  0  0  0  0999 V2000
    0.5263   -0.8118    0.4938 C   0  0  0  0  0  0  0  0  0  0  0  0
   -0.0963    0.6251    2.0661 C   0  0  0  0  0  0  0  0  0  0  0  0
   -1.0481    0.8152    0.8782 C   0  0  0  0  0  0  0  0  0  0  0  0
    1.7783   -2.9307    0.3071 C   0  0  0  0  0  0  0  0  0  0  0  0
    0.9732   -1.7961   -1.7246 C   0  0  0  0  0  0  0  0  0  0  0  0
    3.1195   -3.1429   -0.3998 C   0  0  1  0  0  0  0  0  0  0  0  0
    2.3450   -2.0516   -2.3542 C   0  0  2  0  0  0  0  0  0  0  0  0
    3.7917   -4.4244    0.0722 C   0  0  0  0  0  0  0  0  0  0  0  0
    2.2333   -2.2269   -3.8619 C   0  0  0  0  0  0  0  0  0  0  0  0
    0.8786   -0.4480    1.7038 N   0  0  0  0  0  0  0  0  0  0  0  0
   -0.5419   -0.1569   -0.0420 N   0  0  0  0  0  0  0  0  0  0  0  0
    1.1120   -1.7619   -0.2684 N   0  0  0  0  0  0  0  0  0  0  0  0
    2.9121   -3.2525   -1.8141 O   0  0  0  0  0  0  0  0  0  0  0  0
    0.4451    1.5511    2.2869 H   0  0  0  0  0  0  0  0  0  0  0  0
   -0.6466    0.3275    2.9652 H   0  0  0  0  0  0  0  0  0  0  0  0
   -2.0849    0.6037    1.1557 H   0  0  0  0  0  0  0  0  0  0  0  0
   -0.9820    1.8272    0.4683 H   0  0  0  0  0  0  0  0  0  0  0  0
    1.1262   -3.8017    0.1682 H   0  0  0  0  0  0  0  0  0  0  0  0
    1.9398   -2.8036    1.3839 H   0  0  0  0  0  0  0  0  0  0  0  0
    0.5584   -0.8550   -2.1043 H   0  0  0  0  0  0  0  0  0  0  0  0
    0.2724   -2.5989   -1.9851 H   0  0  0  0  0  0  0  0  0  0  0  0
    3.7924   -2.2973   -0.2081 H   0  0  0  0  0  0  0  0  0  0  0  0
    3.0251   -1.2163   -2.1441 H   0  0  0  0  0  0  0  0  0  0  0  0
    3.1385   -5.2785   -0.1095 H   0  0  0  0  0  0  0  0  0  0  0  0
    4.0042   -4.3640    1.1401 H   0  0  0  0  0  0  0  0  0  0  0  0
    4.7281   -4.5759   -0.4657 H   0  0  0  0  0  0  0  0  0  0  0  0
    1.5608   -3.0535   -4.0939 H   0  0  0  0  0  0  0  0  0  0  0  0
    3.2143   -2.4406   -4.2876 H   0  0  0  0  0  0  0  0  0  0  0  0
    1.8423   -1.3161   -4.3168 H   0  0  0  0  0  0  0  0  0  0  0  0
   -0.9344   -0.3186   -0.9614 H   0  0  0  0  0  0  0  0  0  0  0  0
  1 10  2  0  0  0  0
  1 11  1  0  0  0  0
  1 12  1  0  0  0  0
  2  3  1  0  0  0  0
  2 10  1  0  0  0  0
  3 11  1  0  0  0  0
  4  6  1  0  0  0  0
  4 12  1  0  0  0  0
  5  7  1  0  0  0  0
  5 12  1  0  0  0  0
  6  8  1  0  0  0  0
  6 13  1  0  0  0  0
  7  9  1  0  0  0  0
  7 13  1  0  0  0  0
  2 14  1  0  0  0  0
  2 15  1  0  0  0  0
  3 16  1  0  0  0  0
  3 17  1  0  0  0  0
  4 18  1  0  0  0  0
  4 19  1  0  0  0  0
  5 20  1  0  0  0  0
  5 21  1  0  0  0  0
  6 22  1  0  0  0  0
  7 23  1  0  0  0  0
  8 24  1  0  0  0  0
  8 25  1  0  0  0  0
  8 26  1  0  0  0  0
  9 27  1  0  0  0  0
  9 28  1  0  0  0  0
  9 29  1  0  0  0  0
 11 30  1  0  0  0  0
M  END
$$$$
frag.vs.323_1
  -OEChem-01121112263D

 30 31  0     1  0  0  0  0  0999 V2000
   -0.7859   -0.7545    0.1284 C   0  0  0  0  0  0  0  0  0  0  0  0
   -1.6187    1.1766    0.8369 C   0  0  0  0  0  0  0  0  0  0  0  0
   -0.0928    1.2691    0.9643 C   0  0  0  0  0  0  0  0  0  0  0  0
   -1.5121   -3.0920   -0.1661 C   0  0  0  0  0  0  0  0  0  0  0  0
    0.7080   -2.3905   -0.9517 C   0  0  0  0  0  0  0  0  0  0  0  0
   -1.7372   -3.7826   -1.5120 C   0  0  2  0  0  0  0  0  0  0  0  0
    0.4519   -3.1346   -2.2648 C   0  0  2  0  0  0  0  0  0  0  0  0
   -2.6050   -5.0237   -1.3488 C   0  0  0  0  0  0  0  0  0  0  0  0
    0.0315   -2.2089   -3.4053 C   0  0  0  0  0  0  0  0  0  0  0  0
   -1.9509   -0.1738    0.2897 N   0  0  0  0  0  0  0  0  0  0  0  0
    0.3051   -0.0175    0.4800 N   0  0  0  0  0  0  0  0  0  0  0  0
   -0.5612   -1.9999   -0.3463 N   0  0  0  0  0  0  0  0  0  0  0  0
   -0.4868   -4.2008   -2.0731 O   0  0  0  0  0  0  0  0  0  0  0  0
   -2.1021    1.3049    1.8112 H   0  0  0  0  0  0  0  0  0  0  0  0
   -2.0027    1.9473    0.1600 H   0  0  0  0  0  0  0  0  0  0  0  0
    0.3142    2.0744    0.3459 H   0  0  0  0  0  0  0  0  0  0  0  0
    0.2154    1.4188    2.0030 H   0  0  0  0  0  0  0  0  0  0  0  0
   -2.4666   -2.7285    0.2323 H   0  0  0  0  0  0  0  0  0  0  0  0
   -1.0958   -3.7964    0.5647 H   0  0  0  0  0  0  0  0  0  0  0  0
    1.2283   -3.0544   -0.2505 H   0  0  0  0  0  0  0  0  0  0  0  0
    1.3582   -1.5249   -1.1245 H   0  0  0  0  0  0  0  0  0  0  0  0
   -2.2370   -3.1042   -2.2129 H   0  0  0  0  0  0  0  0  0  0  0  0
    1.3904   -3.6122   -2.5699 H   0  0  0  0  0  0  0  0  0  0  0  0
   -2.1335   -5.7202   -0.6553 H   0  0  0  0  0  0  0  0  0  0  0  0
   -2.7349   -5.5175   -2.3120 H   0  0  0  0  0  0  0  0  0  0  0  0
   -3.5845   -4.7456   -0.9592 H   0  0  0  0  0  0  0  0  0  0  0  0
   -0.9007   -1.7084   -3.1492 H   0  0  0  0  0  0  0  0  0  0  0  0
   -0.1126   -2.7879   -4.3158 H   0  0  0  0  0  0  0  0  0  0  0  0
    0.8034   -1.4606   -3.5762 H   0  0  0  0  0  0  0  0  0  0  0  0
    1.2691   -0.3213    0.4180 H   0  0  0  0  0  0  0  0  0  0  0  0
  1 10  2  0  0  0  0
  1 11  1  0  0  0  0
  1 12  1  0  0  0  0
  2  3  1  0  0  0  0
  2 10  1  0  0  0  0
  3 11  1  0  0  0  0
  4  6  1  0  0  0  0
  4 12  1  0  0  0  0
  5  7  1  0  0  0  0
  5 12  1  0  0  0  0
  6  8  1  0  0  0  0
  6 13  1  0  0  0  0
  7  9  1  0  0  0  0
  7 13  1  0  0  0  0
  2 14  1  0  0  0  0
  2 15  1  0  0  0  0
  3 16  1  0  0  0  0
  3 17  1  0  0  0  0
  4 18  1  0  0  0  0
  4 19  1  0  0  0  0
  5 20  1  0  0  0  0
  5 21  1  0  0  0  0
  6 22  1  0  0  0  0
  7 23  1  0  0  0  0
  8 24  1  0  0  0  0
  8 25  1  0  0  0  0
  8 26  1  0  0  0  0
  9 27  1  0  0  0  0
  9 28  1  0  0  0  0
  9 29  1  0  0  0  0
 11 30  1  0  0  0  0
M  END
$$$$
frag.vs.323_2
  -OEChem-01121112263D

 30 31  0     1  0  0  0  0  0999 V2000
    0.9880   -0.4117   -0.2402 C   0  0  0  0  0  0  0  0  0  0  0  0
    0.4547    1.2448    1.1368 C   0  0  0  0  0  0  0  0  0  0  0  0
    1.7104    0.5716    1.7053 C   0  0  0  0  0  0  0  0  0  0  0  0
    2.3507   -1.8868   -1.6695 C   0  0  0  0  0  0  0  0  0  0  0  0
   -0.0758   -1.7376   -2.0258 C   0  0  0  0  0  0  0  0  0  0  0  0
    2.2474   -3.4110   -1.7689 C   0  0  1  0  0  0  0  0  0  0  0  0
   -0.1328   -3.2653   -2.0722 C   0  0  1  0  0  0  0  0  0  0  0  0
    2.2578   -4.1018   -0.4063 C   0  0  0  0  0  0  0  0  0  0  0  0
   -1.2295   -3.7411   -3.0162 C   0  0  0  0  0  0  0  0  0  0  0  0
    0.0779    0.5249   -0.1174 N   0  0  0  0  0  0  0  0  0  0  0  0
    1.9386   -0.4555    0.7352 N   0  0  0  0  0  0  0  0  0  0  0  0
    1.0760   -1.3302   -1.2279 N   0  0  0  0  0  0  0  0  0  0  0  0
    1.1094   -3.7961   -2.5506 O   0  0  0  0  0  0  0  0  0  0  0  0
   -0.3746    1.1941    1.8503 H   0  0  0  0  0  0  0  0  0  0  0  0
    0.6451    2.2988    0.9076 H   0  0  0  0  0  0  0  0  0  0  0  0
    2.5518    1.2687    1.7575 H   0  0  0  0  0  0  0  0  0  0  0  0
    1.5263    0.1509    2.6981 H   0  0  0  0  0  0  0  0  0  0  0  0
    3.1710   -1.6029   -0.9999 H   0  0  0  0  0  0  0  0  0  0  0  0
    2.5784   -1.4706   -2.6586 H   0  0  0  0  0  0  0  0  0  0  0  0
    0.0389   -1.3243   -3.0354 H   0  0  0  0  0  0  0  0  0  0  0  0
   -1.0096   -1.3408   -1.6104 H   0  0  0  0  0  0  0  0  0  0  0  0
    3.1249   -3.7729   -2.3179 H   0  0  0  0  0  0  0  0  0  0  0  0
   -0.3379   -3.6724   -1.0755 H   0  0  0  0  0  0  0  0  0  0  0  0
    1.4012   -3.7737    0.1798 H   0  0  0  0  0  0  0  0  0  0  0  0
    3.1728   -3.8506    0.1273 H   0  0  0  0  0  0  0  0  0  0  0  0
    2.2069   -5.1810   -0.5398 H   0  0  0  0  0  0  0  0  0  0  0  0
   -1.0535   -3.3517   -4.0192 H   0  0  0  0  0  0  0  0  0  0  0  0
   -2.2008   -3.3908   -2.6666 H   0  0  0  0  0  0  0  0  0  0  0  0
   -1.2402   -4.8305   -3.0569 H   0  0  0  0  0  0  0  0  0  0  0  0
    2.7042   -1.1164    0.7858 H   0  0  0  0  0  0  0  0  0  0  0  0
  1 10  2  0  0  0  0
  1 11  1  0  0  0  0
  1 12  1  0  0  0  0
  2  3  1  0  0  0  0
  2 10  1  0  0  0  0
  3 11  1  0  0  0  0
  4  6  1  0  0  0  0
  4 12  1  0  0  0  0
  5  7  1  0  0  0  0
  5 12  1  0  0  0  0
  6  8  1  0  0  0  0
  6 13  1  0  0  0  0
  7  9  1  0  0  0  0
  7 13  1  0  0  0  0
  2 14  1  0  0  0  0
  2 15  1  0  0  0  0
  3 16  1  0  0  0  0
  3 17  1  0  0  0  0
  4 18  1  0  0  0  0
  4 19  1  0  0  0  0
  5 20  1  0  0  0  0
  5 21  1  0  0  0  0
  6 22  1  0  0  0  0
  7 23  1  0  0  0  0
  8 24  1  0  0  0  0
  8 25  1  0  0  0  0
  8 26  1  0  0  0  0
  9 27  1  0  0  0  0
  9 28  1  0  0  0  0
  9 29  1  0  0  0  0
 11 30  1  0  0  0  0
M  END
$$$$
frag.vs.323_3
  -OEChem-01121112263D

 30 31  0     1  0  0  0  0  0999 V2000
    0.5263   -0.8118    0.4938 C   0  0  0  0  0  0  0  0  0  0  0  0
   -0.0963    0.6251    2.0661 C   0  0  0  0  0  0  0  0  0  0  0  0
   -1.0481    0.8152    0.8782 C   0  0  0  0  0  0  0  0  0  0  0  0
    1.7783   -2.9307    0.3071 C   0  0  0  0  0  0  0  0  0  0  0  0
    0.9732   -1.7961   -1.7246 C   0  0  0  0  0  0  0  0  0  0  0  0
    3.1195   -3.1429   -0.3998 C   0  0  1  0  0  0  0  0  0  0  0  0
    2.3450   -2.0516   -2.3542 C   0  0  2  0  0  0  0  0  0  0  0  0
    3.7917   -4.4244    0.0722 C   0  0  0  0  0  0  0  0  0  0  0  0
    2.2333   -2.2269   -3.8619 C   0  0  0  0  0  0  0  0  0  0  0  0
    0.8786   -0.4480    1.7038 N   0  0  0  0  0  0  0  0  0  0  0  0
   -0.5419   -0.1569   -0.0420 N   0  0  0  0  0  0  0  0  0  0  0  0
    1.1120   -1.7619   -0.2684 N   0  0  0  0  0  0  0  0  0  0  0  0
    2.9121   -3.2525   -1.8141 O   0  0  0  0  0  0  0  0  0  0  0  0
    0.4451    1.5511    2.2869 H   0  0  0  0  0  0  0  0  0  0  0  0
   -0.6466    0.3275    2.9652 H   0  0  0  0  0  0  0  0  0  0  0  0
   -2.0849    0.6037    1.1557 H   0  0  0  0  0  0  0  0  0  0  0  0
   -0.9820    1.8272    0.4683 H   0  0  0  0  0  0  0  0  0  0  0  0
    1.1262   -3.8017    0.1682 H   0  0  0  0  0  0  0  0  0  0  0  0
    1.9398   -2.8036    1.3839 H   0  0  0  0  0  0  0  0  0  0  0  0
    0.5584   -0.8550   -2.1043 H   0  0  0  0  0  0  0  0  0  0  0  0
    0.2724   -2.5989   -1.9851 H   0  0  0  0  0  0  0  0  0  0  0  0
    3.7924   -2.2973   -0.2081 H   0  0  0  0  0  0  0  0  0  0  0  0
    3.0251   -1.2163   -2.1441 H   0  0  0  0  0  0  0  0  0  0  0  0
    3.1385   -5.2785   -0.1095 H   0  0  0  0  0  0  0  0  0  0  0  0
    4.0042   -4.3640    1.1401 H   0  0  0  0  0  0  0  0  0  0  0  0
    4.7281   -4.5759   -0.4657 H   0  0  0  0  0  0  0  0  0  0  0  0
    1.5608   -3.0535   -4.0939 H   0  0  0  0  0  0  0  0  0  0  0  0
    3.2143   -2.4406   -4.2876 H   0  0  0  0  0  0  0  0  0  0  0  0
    1.8423   -1.3161   -4.3168 H   0  0  0  0  0  0  0  0  0  0  0  0
   -0.9344   -0.3186   -0.9614 H   0  0  0  0  0  0  0  0  0  0  0  0
  1 10  2  0  0  0  0
  1 11  1  0  0  0  0
  1 12  1  0  0  0  0
  2  3  1  0  0  0  0
  2 10  1  0  0  0  0
  3 11  1  0  0  0  0
  4  6  1  0  0  0  0
  4 12  1  0  0  0  0
  5  7  1  0  0  0  0
  5 12  1  0  0  0  0
  6  8  1  0  0  0  0
  6 13  1  0  0  0  0
  7  9  1  0  0  0  0
  7 13  1  0  0  0  0
  2 14  1  0  0  0  0
  2 15  1  0  0  0  0
  3 16  1  0  0  0  0
  3 17  1  0  0  0  0
  4 18  1  0  0  0  0
  4 19  1  0  0  0  0
  5 20  1  0  0  0  0
  5 21  1  0  0  0  0
  6 22  1  0  0  0  0
  7 23  1  0  0  0  0
  8 24  1  0  0  0  0
  8 25  1  0  0  0  0
  8 26  1  0  0  0  0
  9 27  1  0  0  0  0
  9 28  1  0  0  0  0
  9 29  1  0  0  0  0
 11 30  1  0  0  0  0
M  END
$$$$
frag.vs.324
  -OEChem-01121112263D

 32 33  0     0  0  0  0  0  0999 V2000
   -0.8778   -2.4749   -0.9088 C   0  0  0  0  0  0  0  0  0  0  0  0
    0.7182   -2.6492   -2.7142 C   0  0  0  0  0  0  0  0  0  0  0  0
   -1.8163   -3.1701   -1.6712 C   0  0  0  0  0  0  0  0  0  0  0  0
   -0.2204   -3.3445   -3.4767 C   0  0  0  0  0  0  0  0  0  0  0  0
    0.3895   -2.2144   -1.4303 C   0  0  0  0  0  0  0  0  0  0  0  0
   -1.4876   -3.6049   -2.9552 C   0  0  0  0  0  0  0  0  0  0  0  0
    4.3218    0.6621    1.4854 C   0  0  0  0  0  0  0  0  0  0  0  0
    0.9093   -0.5227    0.3197 C   0  0  0  0  0  0  0  0  0  0  0  0
    2.7587   -1.7984   -0.8094 C   0  0  0  0  0  0  0  0  0  0  0  0
    1.9939    0.5374    0.5120 C   0  0  0  0  0  0  0  0  0  0  0  0
    3.5071   -1.4348    0.4712 C   0  0  0  0  0  0  0  0  0  0  0  0
    4.0267    2.0996    1.8374 C   0  0  0  0  0  0  0  0  0  0  0  0
    1.3266   -1.5202   -0.6689 N   0  0  0  0  0  0  0  0  0  0  0  0
    3.2974   -0.0394    0.8486 N   0  0  0  0  0  0  0  0  0  0  0  0
    5.4198    0.1778    1.7694 O   0  0  0  0  0  0  0  0  0  0  0  0
   -2.4035   -4.2833   -3.6992 O   0  0  0  0  0  0  0  0  0  0  0  0
   -1.1445   -2.1407    0.0906 H   0  0  0  0  0  0  0  0  0  0  0  0
    1.7028   -2.4517   -3.1304 H   0  0  0  0  0  0  0  0  0  0  0  0
   -2.8019   -3.3700   -1.2596 H   0  0  0  0  0  0  0  0  0  0  0  0
    0.0415   -3.6807   -4.4763 H   0  0  0  0  0  0  0  0  0  0  0  0
    0.7078   -1.0214    1.2764 H   0  0  0  0  0  0  0  0  0  0  0  0
   -0.0180   -0.0358   -0.0051 H   0  0  0  0  0  0  0  0  0  0  0  0
    3.1460   -1.2111   -1.6507 H   0  0  0  0  0  0  0  0  0  0  0  0
    2.9352   -2.8563   -1.0401 H   0  0  0  0  0  0  0  0  0  0  0  0
    2.1324    1.1077   -0.4146 H   0  0  0  0  0  0  0  0  0  0  0  0
    1.6840    1.2405    1.2907 H   0  0  0  0  0  0  0  0  0  0  0  0
    3.1539   -2.0478    1.3095 H   0  0  0  0  0  0  0  0  0  0  0  0
    4.5773   -1.6334    0.3493 H   0  0  0  0  0  0  0  0  0  0  0  0
    3.5948    2.1388    2.8315 H   0  0  0  0  0  0  0  0  0  0  0  0
    3.3291    2.5058    1.1125 H   0  0  0  0  0  0  0  0  0  0  0  0
    4.9508    2.6673    1.8107 H   0  0  0  0  0  0  0  0  0  0  0  0
   -2.0284   -4.5167   -4.5634 H   0  0  0  0  0  0  0  0  0  0  0  0
  1  3  2  0  0  0  0
  1  5  1  0  0  0  0
  2  4  1  0  0  0  0
  2  5  2  0  0  0  0
  3  6  1  0  0  0  0
  4  6  2  0  0  0  0
  5 13  1  0  0  0  0
  6 16  1  0  0  0  0
  7 12  1  0  0  0  0
  7 14  1  0  0  0  0
  7 15  2  0  0  0  0
  8 10  1  0  0  0  0
  8 13  1  0  0  0  0
  9 11  1  0  0  0  0
  9 13  1  0  0  0  0
 10 14  1  0  0  0  0
 11 14  1  0  0  0  0
  1 17  1  0  0  0  0
  2 18  1  0  0  0  0
  3 19  1  0  0  0  0
  4 20  1  0  0  0  0
  8 21  1  0  0  0  0
  8 22  1  0  0  0  0
  9 23  1  0  0  0  0
  9 24  1  0  0  0  0
 10 25  1  0  0  0  0
 10 26  1  0  0  0  0
 11 27  1  0  0  0  0
 11 28  1  0  0  0  0
 12 29  1  0  0  0  0
 12 30  1  0  0  0  0
 12 31  1  0  0  0  0
 16 32  1  0  0  0  0
M  END
$$$$
frag.vs.325
  -OEChem-01121112263D

 22 23  0     0  0  0  0  0  0999 V2000
    6.8332   -2.3556   -2.2161 C   0  0  0  0  0  0  0  0  0  0  0  0
    1.8851   -1.0363   -0.1124 C   0  0  0  0  0  0  0  0  0  0  0  0
    2.8783   -1.6520    2.0022 C   0  0  0  0  0  0  0  0  0  0  0  0
    0.8066   -0.4630    0.5610 C   0  0  0  0  0  0  0  0  0  0  0  0
    1.7997   -1.0786    2.6757 C   0  0  0  0  0  0  0  0  0  0  0  0
    5.3224   -3.7019   -0.6691 C   0  0  0  0  0  0  0  0  0  0  0  0
    5.7414   -2.5276   -1.3229 C   0  0  0  0  0  0  0  0  0  0  0  0
    2.9210   -1.6309    0.6081 C   0  0  0  0  0  0  0  0  0  0  0  0
    0.7638   -0.4841    1.9551 C   0  0  0  0  0  0  0  0  0  0  0  0
    4.8532   -1.5667   -0.9055 C   0  0  0  0  0  0  0  0  0  0  0  0
    7.7249   -2.2152   -2.9455 N   0  0  0  0  0  0  0  0  0  0  0  0
    4.2515   -3.5070    0.1049 N   0  0  0  0  0  0  0  0  0  0  0  0
    3.9900   -2.1991   -0.0598 N   0  0  0  0  0  0  0  0  0  0  0  0
    4.7422   -0.2498   -1.1895 N   0  0  0  0  0  0  0  0  0  0  0  0
   -0.5658    0.2254    2.7858 Cl  0  0  0  0  0  0  0  0  0  0  0  0
    1.9056   -1.0125   -1.1994 H   0  0  0  0  0  0  0  0  0  0  0  0
    3.6792   -2.1119    2.5761 H   0  0  0  0  0  0  0  0  0  0  0  0
    0.0060   -0.0035   -0.0131 H   0  0  0  0  0  0  0  0  0  0  0  0
    1.7795   -1.1028    3.7623 H   0  0  0  0  0  0  0  0  0  0  0  0
    5.7497   -4.6936   -0.7214 H   0  0  0  0  0  0  0  0  0  0  0  0
    5.4210    0.2388   -1.7903 H   0  0  0  0  0  0  0  0  0  0  0  0
    4.0304    0.3469   -0.7447 H   0  0  0  0  0  0  0  0  0  0  0  0
  1  7  1  0  0  0  0
  1 11  3  0  0  0  0
  2  4  1  0  0  0  0
  2  8  2  0  0  0  0
  3  5  2  0  0  0  0
  3  8  1  0  0  0  0
  4  9  2  0  0  0  0
  5  9  1  0  0  0  0
  6  7  1  0  0  0  0
  6 12  2  0  0  0  0
  7 10  2  0  0  0  0
  8 13  1  0  0  0  0
  9 15  1  0  0  0  0
 10 13  1  0  0  0  0
 10 14  1  0  0  0  0
 12 13  1  0  0  0  0
  2 16  1  0  0  0  0
  3 17  1  0  0  0  0
  4 18  1  0  0  0  0
  5 19  1  0  0  0  0
  6 20  1  0  0  0  0
 14 21  1  0  0  0  0
 14 22  1  0  0  0  0
M  END
$$$$
frag.vs.326_0
  -OEChem-01121112263D

 29 30  0     1  0  0  0  0  0999 V2000
    4.4246   -3.0335    5.0735 C   0  0  0  0  0  0  0  0  0  0  0  0
    2.4484   -4.3008    4.5028 C   0  0  0  0  0  0  0  0  0  0  0  0
    4.3598   -3.5203    6.3790 C   0  0  0  0  0  0  0  0  0  0  0  0
    2.3837   -4.7877    5.8084 C   0  0  0  0  0  0  0  0  0  0  0  0
    3.4689   -3.4237    4.1354 C   0  0  0  0  0  0  0  0  0  0  0  0
    3.3394   -4.3974    6.7465 C   0  0  0  0  0  0  0  0  0  0  0  0
    3.3198   -0.3909    2.7145 C   0  0  0  0  0  0  0  0  0  0  0  0
    0.9750   -0.0958    0.4977 C   0  0  0  0  0  0  0  0  0  0  0  0
    2.1785    0.5888    2.5672 C   0  0  0  0  0  0  0  0  0  0  0  0
    1.3626   -1.6779    2.3748 C   0  0  0  0  0  0  0  0  0  0  0  0
    1.0384   -0.2458    1.9890 C   0  0  2  0  0  0  0  0  0  0  0  0
    3.5384   -2.9007    2.7297 C   0  0  0  0  0  0  0  0  0  0  0  0
    2.7936   -1.6698    2.5724 N   0  0  0  0  0  0  0  0  0  0  0  0
    4.4766   -0.0732    2.9499 O   0  0  0  0  0  0  0  0  0  0  0  0
    1.5940   -0.7802   -0.3035 O   0  0  0  0  0  0  0  0  0  0  0  0
    0.1346    0.9103    0.1530 O   0  0  0  0  0  0  0  0  0  0  0  0
    3.2787   -4.8671    7.9994 F   0  0  0  0  0  0  0  0  0  0  0  0
    5.2229   -2.3499    4.7968 H   0  0  0  0  0  0  0  0  0  0  0  0
    1.6996   -4.6107    3.7786 H   0  0  0  0  0  0  0  0  0  0  0  0
    5.1041   -3.2171    7.1092 H   0  0  0  0  0  0  0  0  0  0  0  0
    1.5891   -5.4702    6.0949 H   0  0  0  0  0  0  0  0  0  0  0  0
    1.9229    0.9631    3.5639 H   0  0  0  0  0  0  0  0  0  0  0  0
    2.4762    1.4213    1.9232 H   0  0  0  0  0  0  0  0  0  0  0  0
    0.8945   -1.9528    3.3259 H   0  0  0  0  0  0  0  0  0  0  0  0
    1.0960   -2.4095    1.6056 H   0  0  0  0  0  0  0  0  0  0  0  0
    0.0639    0.0676    2.3779 H   0  0  0  0  0  0  0  0  0  0  0  0
    4.5771   -2.7056    2.4413 H   0  0  0  0  0  0  0  0  0  0  0  0
    3.1349   -3.6294    2.0189 H   0  0  0  0  0  0  0  0  0  0  0  0
    0.0808    1.0257   -0.8197 H   0  0  0  0  0  0  0  0  0  0  0  0
  1  3  1  0  0  0  0
  1  5  2  0  0  0  0
  2  4  2  0  0  0  0
  2  5  1  0  0  0  0
  3  6  2  0  0  0  0
  4  6  1  0  0  0  0
  5 12  1  0  0  0  0
  6 17  1  0  0  0  0
  7  9  1  0  0  0  0
  7 13  1  0  0  0  0
  7 14  2  0  0  0  0
  8 11  1  0  0  0  0
  8 15  2  0  0  0  0
  8 16  1  0  0  0  0
  9 11  1  0  0  0  0
 10 11  1  0  0  0  0
 10 13  1  0  0  0  0
 12 13  1  0  0  0  0
  1 18  1  0  0  0  0
  2 19  1  0  0  0  0
  3 20  1  0  0  0  0
  4 21  1  0  0  0  0
  9 22  1  0  0  0  0
  9 23  1  0  0  0  0
 10 24  1  0  0  0  0
 10 25  1  0  0  0  0
 11 26  1  0  0  0  0
 12 27  1  0  0  0  0
 12 28  1  0  0  0  0
 16 29  1  0  0  0  0
M  END
$$$$
frag.vs.326_1
  -OEChem-01121112263D

 29 30  0     1  0  0  0  0  0999 V2000
    0.8791    5.9175    1.7039 C   0  0  0  0  0  0  0  0  0  0  0  0
    1.2109    5.3893   -0.6302 C   0  0  0  0  0  0  0  0  0  0  0  0
    2.2472    6.1493    1.8460 C   0  0  0  0  0  0  0  0  0  0  0  0
    2.5790    5.6212   -0.4881 C   0  0  0  0  0  0  0  0  0  0  0  0
    0.3610    5.5374    0.4659 C   0  0  0  0  0  0  0  0  0  0  0  0
    3.0972    6.0011    0.7500 C   0  0  0  0  0  0  0  0  0  0  0  0
   -1.8446    3.3977    1.8092 C   0  0  0  0  0  0  0  0  0  0  0  0
   -0.2413    1.0386    0.4121 C   0  0  0  0  0  0  0  0  0  0  0  0
   -2.2148    1.9468    1.5995 C   0  0  0  0  0  0  0  0  0  0  0  0
   -1.5428    2.9368   -0.4930 C   0  0  0  0  0  0  0  0  0  0  0  0
   -1.6390    1.6090    0.2308 C   0  0  1  0  0  0  0  0  0  0  0  0
   -1.1116    5.2885    0.3121 C   0  0  0  0  0  0  0  0  0  0  0  0
   -1.4578    3.9081    0.5744 N   0  0  0  0  0  0  0  0  0  0  0  0
   -1.9243    3.9852    2.8781 O   0  0  0  0  0  0  0  0  0  0  0  0
    0.7833    1.7009    0.4825 O   0  0  0  0  0  0  0  0  0  0  0  0
   -0.2820   -0.3144    0.4833 O   0  0  0  0  0  0  0  0  0  0  0  0
    4.4106    6.2264    0.8856 F   0  0  0  0  0  0  0  0  0  0  0  0
    0.2249    6.0347    2.5638 H   0  0  0  0  0  0  0  0  0  0  0  0
    0.8162    5.0939   -1.5987 H   0  0  0  0  0  0  0  0  0  0  0  0
    2.6506    6.4458    2.8095 H   0  0  0  0  0  0  0  0  0  0  0  0
    3.2411    5.5055   -1.3411 H   0  0  0  0  0  0  0  0  0  0  0  0
   -1.8046    1.3324    2.4061 H   0  0  0  0  0  0  0  0  0  0  0  0
   -3.3073    1.8732    1.5955 H   0  0  0  0  0  0  0  0  0  0  0  0
   -0.6659    3.0190   -1.1427 H   0  0  0  0  0  0  0  0  0  0  0  0
   -2.4506    3.1497   -1.0673 H   0  0  0  0  0  0  0  0  0  0  0  0
   -2.2099    0.8761   -0.3036 H   0  0  0  0  0  0  0  0  0  0  0  0
   -1.6837    5.9169    1.0033 H   0  0  0  0  0  0  0  0  0  0  0  0
   -1.4474    5.5310   -0.7017 H   0  0  0  0  0  0  0  0  0  0  0  0
    0.6117   -0.7022    0.5986 H   0  0  0  0  0  0  0  0  0  0  0  0
  1  3  1  0  0  0  0
  1  5  2  0  0  0  0
  2  4  2  0  0  0  0
  2  5  1  0  0  0  0
  3  6  2  0  0  0  0
  4  6  1  0  0  0  0
  5 12  1  0  0  0  0
  6 17  1  0  0  0  0
  7  9  1  0  0  0  0
  7 13  1  0  0  0  0
  7 14  2  0  0  0  0
  8 11  1  0  0  0  0
  8 15  2  0  0  0  0
  8 16  1  0  0  0  0
  9 11  1  0  0  0  0
 10 11  1  0  0  0  0
 10 13  1  0  0  0  0
 12 13  1  0  0  0  0
  1 18  1  0  0  0  0
  2 19  1  0  0  0  0
  3 20  1  0  0  0  0
  4 21  1  0  0  0  0
  9 22  1  0  0  0  0
  9 23  1  0  0  0  0
 10 24  1  0  0  0  0
 10 25  1  0  0  0  0
 11 26  1  0  0  0  0
 12 27  1  0  0  0  0
 12 28  1  0  0  0  0
 16 29  1  0  0  0  0
M  END
$$$$
frag.vs.327_0
  -OEChem-01121112263D

 26 27  0     1  0  0  0  0  0999 V2000
    3.4531   -5.1584   -0.2261 C   0  0  0  0  0  0  0  0  0  0  0  0
    3.1420   -4.9726    1.1421 C   0  0  0  0  0  0  0  0  0  0  0  0
    4.0477   -3.9908   -0.6445 C   0  0  0  0  0  0  0  0  0  0  0  0
    3.5690   -3.7049    1.4623 C   0  0  0  0  0  0  0  0  0  0  0  0
    3.3198   -0.3909    2.7145 C   0  0  0  0  0  0  0  0  0  0  0  0
    0.9750   -0.0958    0.4977 C   0  0  0  0  0  0  0  0  0  0  0  0
    2.1785    0.5888    2.5672 C   0  0  0  0  0  0  0  0  0  0  0  0
    1.3626   -1.6779    2.3748 C   0  0  0  0  0  0  0  0  0  0  0  0
    1.0384   -0.2458    1.9890 C   0  0  2  0  0  0  0  0  0  0  0  0
    3.5384   -2.9007    2.7297 C   0  0  0  0  0  0  0  0  0  0  0  0
    2.7936   -1.6698    2.5724 N   0  0  0  0  0  0  0  0  0  0  0  0
    4.4766   -0.0732    2.9499 O   0  0  0  0  0  0  0  0  0  0  0  0
    1.5940   -0.7802   -0.3035 O   0  0  0  0  0  0  0  0  0  0  0  0
    4.1223   -3.0997    0.3787 O   0  0  0  0  0  0  0  0  0  0  0  0
    0.1346    0.9103    0.1530 O   0  0  0  0  0  0  0  0  0  0  0  0
    3.2668   -6.0335   -0.8316 H   0  0  0  0  0  0  0  0  0  0  0  0
    2.6654   -5.6771    1.8089 H   0  0  0  0  0  0  0  0  0  0  0  0
    4.4517   -3.6543   -1.5880 H   0  0  0  0  0  0  0  0  0  0  0  0
    1.9229    0.9631    3.5639 H   0  0  0  0  0  0  0  0  0  0  0  0
    2.4762    1.4213    1.9232 H   0  0  0  0  0  0  0  0  0  0  0  0
    0.8945   -1.9528    3.3259 H   0  0  0  0  0  0  0  0  0  0  0  0
    1.0960   -2.4095    1.6056 H   0  0  0  0  0  0  0  0  0  0  0  0
    0.0639    0.0676    2.3779 H   0  0  0  0  0  0  0  0  0  0  0  0
    3.0749   -3.4742    3.5398 H   0  0  0  0  0  0  0  0  0  0  0  0
    4.5513   -2.6399    3.0542 H   0  0  0  0  0  0  0  0  0  0  0  0
    0.0808    1.0257   -0.8197 H   0  0  0  0  0  0  0  0  0  0  0  0
  1  2  1  0  0  0  0
  1  3  2  0  0  0  0
  2  4  2  0  0  0  0
  3 14  1  0  0  0  0
  4 10  1  0  0  0  0
  4 14  1  0  0  0  0
  5  7  1  0  0  0  0
  5 11  1  0  0  0  0
  5 12  2  0  0  0  0
  6  9  1  0  0  0  0
  6 13  2  0  0  0  0
  6 15  1  0  0  0  0
  7  9  1  0  0  0  0
  8  9  1  0  0  0  0
  8 11  1  0  0  0  0
 10 11  1  0  0  0  0
  1 16  1  0  0  0  0
  2 17  1  0  0  0  0
  3 18  1  0  0  0  0
  7 19  1  0  0  0  0
  7 20  1  0  0  0  0
  8 21  1  0  0  0  0
  8 22  1  0  0  0  0
  9 23  1  0  0  0  0
 10 24  1  0  0  0  0
 10 25  1  0  0  0  0
 15 26  1  0  0  0  0
M  END
$$$$
frag.vs.327_1
  -OEChem-01121112263D

 26 27  0     1  0  0  0  0  0999 V2000
    2.4523    6.1457    0.9487 C   0  0  0  0  0  0  0  0  0  0  0  0
    1.0943    6.3713    1.2776 C   0  0  0  0  0  0  0  0  0  0  0  0
    2.4520    5.1899   -0.0405 C   0  0  0  0  0  0  0  0  0  0  0  0
    0.3610    5.5374    0.4659 C   0  0  0  0  0  0  0  0  0  0  0  0
   -1.8446    3.3977    1.8092 C   0  0  0  0  0  0  0  0  0  0  0  0
   -0.2413    1.0386    0.4121 C   0  0  0  0  0  0  0  0  0  0  0  0
   -2.2148    1.9468    1.5995 C   0  0  0  0  0  0  0  0  0  0  0  0
   -1.5428    2.9368   -0.4930 C   0  0  0  0  0  0  0  0  0  0  0  0
   -1.6390    1.6090    0.2308 C   0  0  1  0  0  0  0  0  0  0  0  0
   -1.1116    5.2885    0.3121 C   0  0  0  0  0  0  0  0  0  0  0  0
   -1.4578    3.9081    0.5744 N   0  0  0  0  0  0  0  0  0  0  0  0
   -1.9243    3.9852    2.8781 O   0  0  0  0  0  0  0  0  0  0  0  0
    0.7833    1.7009    0.4825 O   0  0  0  0  0  0  0  0  0  0  0  0
    1.1811    4.8139   -0.3407 O   0  0  0  0  0  0  0  0  0  0  0  0
   -0.2820   -0.3144    0.4833 O   0  0  0  0  0  0  0  0  0  0  0  0
    3.3224    6.6199    1.3789 H   0  0  0  0  0  0  0  0  0  0  0  0
    0.7022    7.0567    2.0154 H   0  0  0  0  0  0  0  0  0  0  0  0
    3.2307    4.6978   -0.6044 H   0  0  0  0  0  0  0  0  0  0  0  0
   -1.8046    1.3324    2.4061 H   0  0  0  0  0  0  0  0  0  0  0  0
   -3.3073    1.8732    1.5955 H   0  0  0  0  0  0  0  0  0  0  0  0
   -0.6659    3.0190   -1.1427 H   0  0  0  0  0  0  0  0  0  0  0  0
   -2.4506    3.1497   -1.0673 H   0  0  0  0  0  0  0  0  0  0  0  0
   -2.2099    0.8761   -0.3036 H   0  0  0  0  0  0  0  0  0  0  0  0
   -1.6837    5.9169    1.0033 H   0  0  0  0  0  0  0  0  0  0  0  0
   -1.4474    5.5310   -0.7017 H   0  0  0  0  0  0  0  0  0  0  0  0
    0.6117   -0.7022    0.5986 H   0  0  0  0  0  0  0  0  0  0  0  0
  1  2  1  0  0  0  0
  1  3  2  0  0  0  0
  2  4  2  0  0  0  0
  3 14  1  0  0  0  0
  4 10  1  0  0  0  0
  4 14  1  0  0  0  0
  5  7  1  0  0  0  0
  5 11  1  0  0  0  0
  5 12  2  0  0  0  0
  6  9  1  0  0  0  0
  6 13  2  0  0  0  0
  6 15  1  0  0  0  0
  7  9  1  0  0  0  0
  8  9  1  0  0  0  0
  8 11  1  0  0  0  0
 10 11  1  0  0  0  0
  1 16  1  0  0  0  0
  2 17  1  0  0  0  0
  3 18  1  0  0  0  0
  7 19  1  0  0  0  0
  7 20  1  0  0  0  0
  8 21  1  0  0  0  0
  8 22  1  0  0  0  0
  9 23  1  0  0  0  0
 10 24  1  0  0  0  0
 10 25  1  0  0  0  0
 15 26  1  0  0  0  0
M  END
$$$$
frag.vs.328_0
  -OEChem-01121112263D

 26 27  0     1  0  0  0  0  0999 V2000
    3.9128   -4.3811   -0.7347 C   0  0  0  0  0  0  0  0  0  0  0  0
    4.0658   -3.3431    0.2293 C   0  0  0  0  0  0  0  0  0  0  0  0
    3.3052   -5.4967   -0.2020 C   0  0  0  0  0  0  0  0  0  0  0  0
    3.5690   -3.7049    1.4623 C   0  0  0  0  0  0  0  0  0  0  0  0
    3.3198   -0.3909    2.7145 C   0  0  0  0  0  0  0  0  0  0  0  0
    0.9750   -0.0958    0.4977 C   0  0  0  0  0  0  0  0  0  0  0  0
    2.1785    0.5888    2.5672 C   0  0  0  0  0  0  0  0  0  0  0  0
    1.3626   -1.6779    2.3748 C   0  0  0  0  0  0  0  0  0  0  0  0
    1.0384   -0.2458    1.9890 C   0  0  2  0  0  0  0  0  0  0  0  0
    3.5384   -2.9007    2.7297 C   0  0  0  0  0  0  0  0  0  0  0  0
    2.7936   -1.6698    2.5724 N   0  0  0  0  0  0  0  0  0  0  0  0
    4.4766   -0.0732    2.9499 O   0  0  0  0  0  0  0  0  0  0  0  0
    1.5940   -0.7802   -0.3035 O   0  0  0  0  0  0  0  0  0  0  0  0
    0.1346    0.9103    0.1530 O   0  0  0  0  0  0  0  0  0  0  0  0
    2.9218   -5.2902    1.4542 S   0  0  0  0  0  0  0  0  0  0  0  0
    4.2312   -4.3135   -1.7668 H   0  0  0  0  0  0  0  0  0  0  0  0
    4.5169   -2.3807    0.0233 H   0  0  0  0  0  0  0  0  0  0  0  0
    3.0685   -6.4231   -0.7058 H   0  0  0  0  0  0  0  0  0  0  0  0
    1.9229    0.9631    3.5639 H   0  0  0  0  0  0  0  0  0  0  0  0
    2.4762    1.4213    1.9232 H   0  0  0  0  0  0  0  0  0  0  0  0
    0.8945   -1.9528    3.3259 H   0  0  0  0  0  0  0  0  0  0  0  0
    1.0960   -2.4095    1.6056 H   0  0  0  0  0  0  0  0  0  0  0  0
    0.0639    0.0676    2.3779 H   0  0  0  0  0  0  0  0  0  0  0  0
    3.0749   -3.4742    3.5398 H   0  0  0  0  0  0  0  0  0  0  0  0
    4.5513   -2.6399    3.0542 H   0  0  0  0  0  0  0  0  0  0  0  0
    0.0808    1.0257   -0.8197 H   0  0  0  0  0  0  0  0  0  0  0  0
  1  2  1  0  0  0  0
  1  3  2  0  0  0  0
  2  4  2  0  0  0  0
  3 15  1  0  0  0  0
  4 10  1  0  0  0  0
  4 15  1  0  0  0  0
  5  7  1  0  0  0  0
  5 11  1  0  0  0  0
  5 12  2  0  0  0  0
  6  9  1  0  0  0  0
  6 13  2  0  0  0  0
  6 14  1  0  0  0  0
  7  9  1  0  0  0  0
  8  9  1  0  0  0  0
  8 11  1  0  0  0  0
 10 11  1  0  0  0  0
  1 16  1  0  0  0  0
  2 17  1  0  0  0  0
  3 18  1  0  0  0  0
  7 19  1  0  0  0  0
  7 20  1  0  0  0  0
  8 21  1  0  0  0  0
  8 22  1  0  0  0  0
  9 23  1  0  0  0  0
 10 24  1  0  0  0  0
 10 25  1  0  0  0  0
 14 26  1  0  0  0  0
M  END
$$$$
frag.vs.328_1
  -OEChem-01121112263D

 26 27  0     1  0  0  0  0  0999 V2000
   -4.3787    7.1795    0.0210 C   0  0  0  0  0  0  0  0  0  0  0  0
   -3.4486    6.3429    0.7030 C   0  0  0  0  0  0  0  0  0  0  0  0
   -3.9210    7.5559   -1.2225 C   0  0  0  0  0  0  0  0  0  0  0  0
   -2.3154    6.1114   -0.0455 C   0  0  0  0  0  0  0  0  0  0  0  0
   -1.8446    3.3977    1.8092 C   0  0  0  0  0  0  0  0  0  0  0  0
   -0.2413    1.0386    0.4121 C   0  0  0  0  0  0  0  0  0  0  0  0
   -2.2148    1.9468    1.5995 C   0  0  0  0  0  0  0  0  0  0  0  0
   -1.5428    2.9368   -0.4930 C   0  0  0  0  0  0  0  0  0  0  0  0
   -1.6390    1.6090    0.2308 C   0  0  1  0  0  0  0  0  0  0  0  0
   -1.1116    5.2885    0.3121 C   0  0  0  0  0  0  0  0  0  0  0  0
   -1.4578    3.9081    0.5744 N   0  0  0  0  0  0  0  0  0  0  0  0
   -1.9243    3.9852    2.8781 O   0  0  0  0  0  0  0  0  0  0  0  0
    0.7833    1.7009    0.4825 O   0  0  0  0  0  0  0  0  0  0  0  0
   -0.2820   -0.3144    0.4833 O   0  0  0  0  0  0  0  0  0  0  0  0
   -2.3757    6.9014   -1.5635 S   0  0  0  0  0  0  0  0  0  0  0  0
   -5.3353    7.4893    0.4211 H   0  0  0  0  0  0  0  0  0  0  0  0
   -3.6082    5.9327    1.6922 H   0  0  0  0  0  0  0  0  0  0  0  0
   -4.4198    8.1842   -1.9469 H   0  0  0  0  0  0  0  0  0  0  0  0
   -1.8046    1.3324    2.4061 H   0  0  0  0  0  0  0  0  0  0  0  0
   -3.3073    1.8732    1.5955 H   0  0  0  0  0  0  0  0  0  0  0  0
   -0.6659    3.0190   -1.1427 H   0  0  0  0  0  0  0  0  0  0  0  0
   -2.4506    3.1497   -1.0673 H   0  0  0  0  0  0  0  0  0  0  0  0
   -2.2099    0.8761   -0.3036 H   0  0  0  0  0  0  0  0  0  0  0  0
   -0.3782    5.3035   -0.5015 H   0  0  0  0  0  0  0  0  0  0  0  0
   -0.6157    5.6847    1.2044 H   0  0  0  0  0  0  0  0  0  0  0  0
    0.6117   -0.7022    0.5986 H   0  0  0  0  0  0  0  0  0  0  0  0
  1  2  1  0  0  0  0
  1  3  2  0  0  0  0
  2  4  2  0  0  0  0
  3 15  1  0  0  0  0
  4 10  1  0  0  0  0
  4 15  1  0  0  0  0
  5  7  1  0  0  0  0
  5 11  1  0  0  0  0
  5 12  2  0  0  0  0
  6  9  1  0  0  0  0
  6 13  2  0  0  0  0
  6 14  1  0  0  0  0
  7  9  1  0  0  0  0
  8  9  1  0  0  0  0
  8 11  1  0  0  0  0
 10 11  1  0  0  0  0
  1 16  1  0  0  0  0
  2 17  1  0  0  0  0
  3 18  1  0  0  0  0
  7 19  1  0  0  0  0
  7 20  1  0  0  0  0
  8 21  1  0  0  0  0
  8 22  1  0  0  0  0
  9 23  1  0  0  0  0
 10 24  1  0  0  0  0
 10 25  1  0  0  0  0
 14 26  1  0  0  0  0
M  END
$$$$
frag.vs.329
  -OEChem-01121112263D

 24 25  0     0  0  0  0  0  0999 V2000
    1.8872   -1.0352   -0.1124 C   0  0  0  0  0  0  0  0  0  0  0  0
    2.2832    0.0869    0.6153 C   0  0  0  0  0  0  0  0  0  0  0  0
    1.4473   -2.1791    0.5539 C   0  0  0  0  0  0  0  0  0  0  0  0
    2.2395    0.0652    2.0094 C   0  0  0  0  0  0  0  0  0  0  0  0
    1.4036   -2.2008    1.9479 C   0  0  0  0  0  0  0  0  0  0  0  0
    1.3061   -0.6652    6.1504 C   0  0  0  0  0  0  0  0  0  0  0  0
    1.7997   -1.0786    2.6757 C   0  0  0  0  0  0  0  0  0  0  0  0
    2.2061   -1.7381    6.0057 C   0  0  0  0  0  0  0  0  0  0  0  0
    1.0324   -0.2708    4.8635 C   0  0  0  0  0  0  0  0  0  0  0  0
    2.8267   -2.5386    7.0746 C   0  0  0  0  0  0  0  0  0  0  0  0
    2.4853   -2.0081    4.7278 N   0  0  0  0  0  0  0  0  0  0  0  0
    1.7565   -1.0993    4.0577 N   0  0  0  0  0  0  0  0  0  0  0  0
    0.2399    0.7067    4.3739 N   0  0  0  0  0  0  0  0  0  0  0  0
    1.9193   -1.0183   -1.1978 H   0  0  0  0  0  0  0  0  0  0  0  0
    2.6244    0.9780    0.0968 H   0  0  0  0  0  0  0  0  0  0  0  0
    1.1377   -3.0520   -0.0135 H   0  0  0  0  0  0  0  0  0  0  0  0
    2.5503    0.9469    2.5645 H   0  0  0  0  0  0  0  0  0  0  0  0
    1.0579   -3.0986    2.4546 H   0  0  0  0  0  0  0  0  0  0  0  0
    0.9112   -0.2378    7.0614 H   0  0  0  0  0  0  0  0  0  0  0  0
    2.2060   -3.4142    7.3313 H   0  0  0  0  0  0  0  0  0  0  0  0
    3.8263   -2.9123    6.7892 H   0  0  0  0  0  0  0  0  0  0  0  0
    2.9760   -1.9543    8.0003 H   0  0  0  0  0  0  0  0  0  0  0  0
   -0.3409    1.2991    4.9854 H   0  0  0  0  0  0  0  0  0  0  0  0
    0.1044    0.8465    3.3618 H   0  0  0  0  0  0  0  0  0  0  0  0
  1  2  1  0  0  0  0
  1  3  2  0  0  0  0
  2  4  2  0  0  0  0
  3  5  1  0  0  0  0
  4  7  1  0  0  0  0
  5  7  2  0  0  0  0
  6  8  1  0  0  0  0
  6  9  2  0  0  0  0
  7 12  1  0  0  0  0
  8 10  1  0  0  0  0
  8 11  2  0  0  0  0
  9 12  1  0  0  0  0
  9 13  1  0  0  0  0
 11 12  1  0  0  0  0
  1 14  1  0  0  0  0
  2 15  1  0  0  0  0
  3 16  1  0  0  0  0
  4 17  1  0  0  0  0
  5 18  1  0  0  0  0
  6 19  1  0  0  0  0
 10 20  1  0  0  0  0
 10 21  1  0  0  0  0
 10 22  1  0  0  0  0
 13 23  1  0  0  0  0
 13 24  1  0  0  0  0
M  END
$$$$
frag.vs.330
  -OEChem-01121112263D

 36 37  0     0  0  0  0  0  0999 V2000
    0.5433    2.2883    4.2471 C   0  0  0  0  0  0  0  0  0  0  0  0
    1.3375    2.0763    3.0932 C   0  0  0  0  0  0  0  0  0  0  0  0
    0.3717    1.0661    4.8586 C   0  0  0  0  0  0  0  0  0  0  0  0
    1.6269    0.7308    3.0346 C   0  0  0  0  0  0  0  0  0  0  0  0
   -1.3858   -5.5372    4.8423 C   0  0  0  0  0  0  0  0  0  0  0  0
    0.7576   -5.6835    3.7717 C   0  0  0  0  0  0  0  0  0  0  0  0
   -1.4616   -4.0465    4.5029 C   0  0  0  0  0  0  0  0  0  0  0  0
    0.6946   -4.1936    3.4261 C   0  0  0  0  0  0  0  0  0  0  0  0
   -0.3680    0.7190    6.0896 C   0  0  0  0  0  0  0  0  0  0  0  0
    2.4176   -0.0248    2.0413 C   0  0  0  0  0  0  0  0  0  0  0  0
    1.0996   -1.2992    4.4194 C   0  0  0  0  0  0  0  0  0  0  0  0
   -0.1859   -2.0442    4.0765 C   0  0  0  0  0  0  0  0  0  0  0  0
    1.0345    0.1266    4.1126 N   0  0  0  0  0  0  0  0  0  0  0  0
   -0.5792   -6.2743    3.8670 N   0  0  0  0  0  0  0  0  0  0  0  0
   -0.1161   -3.4653    4.4104 N   0  0  0  0  0  0  0  0  0  0  0  0
    0.1417    3.2309    4.5925 H   0  0  0  0  0  0  0  0  0  0  0  0
    1.6620    2.8249    2.3837 H   0  0  0  0  0  0  0  0  0  0  0  0
   -0.9746   -5.6773    5.8502 H   0  0  0  0  0  0  0  0  0  0  0  0
   -2.3982   -5.9557    4.8495 H   0  0  0  0  0  0  0  0  0  0  0  0
    1.3211   -6.2099    2.9935 H   0  0  0  0  0  0  0  0  0  0  0  0
    1.2996   -5.8313    4.7145 H   0  0  0  0  0  0  0  0  0  0  0  0
   -2.0120   -3.9100    3.5621 H   0  0  0  0  0  0  0  0  0  0  0  0
   -2.0309   -3.5400    5.2916 H   0  0  0  0  0  0  0  0  0  0  0  0
    1.7167   -3.7961    3.4194 H   0  0  0  0  0  0  0  0  0  0  0  0
    0.2873   -4.0675    2.4138 H   0  0  0  0  0  0  0  0  0  0  0  0
   -1.4166    0.4673    5.8636 H   0  0  0  0  0  0  0  0  0  0  0  0
    0.0801   -0.1436    6.6106 H   0  0  0  0  0  0  0  0  0  0  0  0
   -0.3702    1.5482    6.8169 H   0  0  0  0  0  0  0  0  0  0  0  0
    3.4797   -0.0686    2.3312 H   0  0  0  0  0  0  0  0  0  0  0  0
    2.0568   -1.0608    1.9287 H   0  0  0  0  0  0  0  0  0  0  0  0
    2.3614    0.4294    1.0377 H   0  0  0  0  0  0  0  0  0  0  0  0
    1.3116   -1.3865    5.4918 H   0  0  0  0  0  0  0  0  0  0  0  0
    1.9582   -1.7220    3.8842 H   0  0  0  0  0  0  0  0  0  0  0  0
   -1.0231   -1.6263    4.6439 H   0  0  0  0  0  0  0  0  0  0  0  0
   -0.4217   -1.9685    3.0101 H   0  0  0  0  0  0  0  0  0  0  0  0
   -0.5016   -7.2489    4.1555 H   0  0  0  0  0  0  0  0  0  0  0  0
  1  2  1  0  0  0  0
  1  3  2  0  0  0  0
  2  4  2  0  0  0  0
  3  9  1  0  0  0  0
  3 13  1  0  0  0  0
  4 10  1  0  0  0  0
  4 13  1  0  0  0  0
  5  7  1  0  0  0  0
  5 14  1  0  0  0  0
  6  8  1  0  0  0  0
  6 14  1  0  0  0  0
  7 15  1  0  0  0  0
  8 15  1  0  0  0  0
 11 12  1  0  0  0  0
 11 13  1  0  0  0  0
 12 15  1  0  0  0  0
  1 16  1  0  0  0  0
  2 17  1  0  0  0  0
  5 18  1  0  0  0  0
  5 19  1  0  0  0  0
  6 20  1  0  0  0  0
  6 21  1  0  0  0  0
  7 22  1  0  0  0  0
  7 23  1  0  0  0  0
  8 24  1  0  0  0  0
  8 25  1  0  0  0  0
  9 26  1  0  0  0  0
  9 27  1  0  0  0  0
  9 28  1  0  0  0  0
 10 29  1  0  0  0  0
 10 30  1  0  0  0  0
 10 31  1  0  0  0  0
 11 32  1  0  0  0  0
 11 33  1  0  0  0  0
 12 34  1  0  0  0  0
 12 35  1  0  0  0  0
 14 36  1  0  0  0  0
M  END
$$$$
frag.vs.331
  -OEChem-01121112263D

 26 27  0     0  0  0  0  0  0999 V2000
    1.8837   -1.0375   -0.1125 C   0  0  0  0  0  0  0  0  0  0  0  0
    2.3165    0.0713    0.6147 C   0  0  0  0  0  0  0  0  0  0  0  0
    1.4088   -2.1669    0.5544 C   0  0  0  0  0  0  0  0  0  0  0  0
    2.2746    0.0507    2.0088 C   0  0  0  0  0  0  0  0  0  0  0  0
    1.3668   -2.1874    1.9485 C   0  0  0  0  0  0  0  0  0  0  0  0
    5.1085   -0.9758    5.4751 C   0  0  0  0  0  0  0  0  0  0  0  0
    4.0473   -0.3349    4.8805 C   0  0  0  0  0  0  0  0  0  0  0  0
    1.7997   -1.0786    2.6757 C   0  0  0  0  0  0  0  0  0  0  0  0
    3.5953   -2.4577    5.2629 C   0  0  0  0  0  0  0  0  0  0  0  0
    1.7548   -1.1014    4.1663 C   0  0  0  0  0  0  0  0  0  0  0  0
    2.8200   -3.7148    5.2865 C   0  0  0  0  0  0  0  0  0  0  0  0
    4.8209   -2.2970    5.7103 N   0  0  0  0  0  0  0  0  0  0  0  0
    3.0857   -1.2971    4.7506 N   0  0  0  0  0  0  0  0  0  0  0  0
    1.8314   -3.6576    6.3142 O   0  0  0  0  0  0  0  0  0  0  0  0
    1.9152   -1.0208   -1.1980 H   0  0  0  0  0  0  0  0  0  0  0  0
    2.6853    0.9511    0.0956 H   0  0  0  0  0  0  0  0  0  0  0  0
    1.0707   -3.0299   -0.0115 H   0  0  0  0  0  0  0  0  0  0  0  0
    2.6140    0.9192    2.5671 H   0  0  0  0  0  0  0  0  0  0  0  0
    0.9954   -3.0718    2.4595 H   0  0  0  0  0  0  0  0  0  0  0  0
    6.0650   -0.5531    5.7457 H   0  0  0  0  0  0  0  0  0  0  0  0
    3.8998    0.6842    4.5511 H   0  0  0  0  0  0  0  0  0  0  0  0
    1.3443   -0.1655    4.5778 H   0  0  0  0  0  0  0  0  0  0  0  0
    1.1038   -1.9059    4.5441 H   0  0  0  0  0  0  0  0  0  0  0  0
    2.3051   -3.9030    4.3284 H   0  0  0  0  0  0  0  0  0  0  0  0
    3.4634   -4.5910    5.4779 H   0  0  0  0  0  0  0  0  0  0  0  0
    1.3559   -4.5016    6.2847 H   0  0  0  0  0  0  0  0  0  0  0  0
  1  2  1  0  0  0  0
  1  3  2  0  0  0  0
  2  4  2  0  0  0  0
  3  5  1  0  0  0  0
  4  8  1  0  0  0  0
  5  8  2  0  0  0  0
  6  7  2  0  0  0  0
  6 12  1  0  0  0  0
  7 13  1  0  0  0  0
  8 10  1  0  0  0  0
  9 11  1  0  0  0  0
  9 12  2  0  0  0  0
  9 13  1  0  0  0  0
 10 13  1  0  0  0  0
 11 14  1  0  0  0  0
  1 15  1  0  0  0  0
  2 16  1  0  0  0  0
  3 17  1  0  0  0  0
  4 18  1  0  0  0  0
  5 19  1  0  0  0  0
  6 20  1  0  0  0  0
  7 21  1  0  0  0  0
 10 22  1  0  0  0  0
 10 23  1  0  0  0  0
 11 24  1  0  0  0  0
 11 25  1  0  0  0  0
 14 26  1  0  0  0  0
M  END
$$$$
frag.vs.332
  -OEChem-01121112263D

 21 22  0     0  0  0  0  0  0999 V2000
    1.8851   -1.0363   -0.1124 C   0  0  0  0  0  0  0  0  0  0  0  0
    0.8066   -0.4630    0.5610 C   0  0  0  0  0  0  0  0  0  0  0  0
    1.7997   -1.0786    2.6757 C   0  0  0  0  0  0  0  0  0  0  0  0
    5.4562   -3.5738   -0.8840 C   0  0  0  0  0  0  0  0  0  0  0  0
    4.3739   -3.5019   -0.0390 C   0  0  0  0  0  0  0  0  0  0  0  0
    4.8252   -1.5417   -0.9395 C   0  0  0  0  0  0  0  0  0  0  0  0
    2.9210   -1.6309    0.6081 C   0  0  0  0  0  0  0  0  0  0  0  0
    2.8783   -1.6520    2.0022 C   0  0  0  0  0  0  0  0  0  0  0  0
    0.7638   -0.4841    1.9551 C   0  0  0  0  0  0  0  0  0  0  0  0
    5.7321   -2.3503   -1.4412 N   0  0  0  0  0  0  0  0  0  0  0  0
    3.9808   -2.1940   -0.0845 N   0  0  0  0  0  0  0  0  0  0  0  0
    3.9148   -2.2486    2.7558 N   0  0  0  0  0  0  0  0  0  0  0  0
   -0.2720    0.0666    2.6016 F   0  0  0  0  0  0  0  0  0  0  0  0
    1.9043   -1.0126   -1.1995 H   0  0  0  0  0  0  0  0  0  0  0  0
   -0.0005   -0.0006    0.0004 H   0  0  0  0  0  0  0  0  0  0  0  0
    1.7545   -1.0892    3.7616 H   0  0  0  0  0  0  0  0  0  0  0  0
    6.0507   -4.4443   -1.1192 H   0  0  0  0  0  0  0  0  0  0  0  0
    3.8719   -4.2444    0.5664 H   0  0  0  0  0  0  0  0  0  0  0  0
    4.7353   -0.4857   -1.1585 H   0  0  0  0  0  0  0  0  0  0  0  0
    3.8761   -2.2052    3.7525 H   0  0  0  0  0  0  0  0  0  0  0  0
    4.7102   -2.6176    2.2784 H   0  0  0  0  0  0  0  0  0  0  0  0
  1  2  1  0  0  0  0
  1  7  2  0  0  0  0
  2  9  2  0  0  0  0
  3  8  2  0  0  0  0
  3  9  1  0  0  0  0
  4  5  2  0  0  0  0
  4 10  1  0  0  0  0
  5 11  1  0  0  0  0
  6 10  2  0  0  0  0
  6 11  1  0  0  0  0
  7  8  1  0  0  0  0
  7 11  1  0  0  0  0
  8 12  1  0  0  0  0
  9 13  1  0  0  0  0
  1 14  1  0  0  0  0
  2 15  1  0  0  0  0
  3 16  1  0  0  0  0
  4 17  1  0  0  0  0
  5 18  1  0  0  0  0
  6 19  1  0  0  0  0
 12 20  1  0  0  0  0
 12 21  1  0  0  0  0
M  END
$$$$
frag.vs.333
  -OEChem-01121112263D

 32 33  0     0  0  0  0  0  0999 V2000
    4.1595   -2.6177   -6.3911 C   0  0  0  0  0  0  0  0  0  0  0  0
    2.9537   -1.9549   -6.6202 C   0  0  0  0  0  0  0  0  0  0  0  0
    4.6040   -2.8254   -5.0854 C   0  0  0  0  0  0  0  0  0  0  0  0
    2.1925   -1.4997   -5.5436 C   0  0  0  0  0  0  0  0  0  0  0  0
    3.8428   -2.3703   -4.0088 C   0  0  0  0  0  0  0  0  0  0  0  0
    2.6371   -1.7074   -4.2379 C   0  0  0  0  0  0  0  0  0  0  0  0
    0.1722   -0.2210   -1.0636 C   0  0  0  0  0  0  0  0  0  0  0  0
    0.5259   -1.7005   -1.1505 C   0  0  0  0  0  0  0  0  0  0  0  0
    1.2891    0.6227   -1.6662 C   0  0  0  0  0  0  0  0  0  0  0  0
    0.8394   -2.1216   -2.5854 C   0  0  0  0  0  0  0  0  0  0  0  0
    1.5954    0.2006   -3.1015 C   0  0  0  0  0  0  0  0  0  0  0  0
    4.3430   -2.6064   -2.6208 C   0  0  0  0  0  0  0  0  0  0  0  0
    1.8600   -1.2437   -3.1694 N   0  0  0  0  0  0  0  0  0  0  0  0
    4.8812   -1.4113   -2.0247 N   0  0  0  0  0  0  0  0  0  0  0  0
    4.7521   -2.9720   -7.2295 H   0  0  0  0  0  0  0  0  0  0  0  0
    2.6077   -1.7932   -7.6370 H   0  0  0  0  0  0  0  0  0  0  0  0
    5.5449   -3.3430   -4.9176 H   0  0  0  0  0  0  0  0  0  0  0  0
    1.2546   -0.9845   -5.7345 H   0  0  0  0  0  0  0  0  0  0  0  0
   -0.7667   -0.0319   -1.5979 H   0  0  0  0  0  0  0  0  0  0  0  0
    0.0132    0.0635   -0.0176 H   0  0  0  0  0  0  0  0  0  0  0  0
    1.3979   -1.9002   -0.5148 H   0  0  0  0  0  0  0  0  0  0  0  0
   -0.3003   -2.3051   -0.7599 H   0  0  0  0  0  0  0  0  0  0  0  0
    1.0091    1.6818   -1.6443 H   0  0  0  0  0  0  0  0  0  0  0  0
    2.1935    0.5156   -1.0539 H   0  0  0  0  0  0  0  0  0  0  0  0
    1.1901   -3.1612   -2.5785 H   0  0  0  0  0  0  0  0  0  0  0  0
   -0.0750   -2.0827   -3.1916 H   0  0  0  0  0  0  0  0  0  0  0  0
    0.7498    0.4553   -3.7535 H   0  0  0  0  0  0  0  0  0  0  0  0
    2.4685    0.7632   -3.4550 H   0  0  0  0  0  0  0  0  0  0  0  0
    3.5374   -2.9689   -1.9687 H   0  0  0  0  0  0  0  0  0  0  0  0
    5.1338   -3.3676   -2.6045 H   0  0  0  0  0  0  0  0  0  0  0  0
    5.5743   -1.4955   -1.2994 H   0  0  0  0  0  0  0  0  0  0  0  0
    4.4201   -0.5317   -2.1897 H   0  0  0  0  0  0  0  0  0  0  0  0
  1  2  1  0  0  0  0
  1  3  2  0  0  0  0
  2  4  2  0  0  0  0
  3  5  1  0  0  0  0
  4  6  1  0  0  0  0
  5  6  2  0  0  0  0
  5 12  1  0  0  0  0
  6 13  1  0  0  0  0
  7  8  1  0  0  0  0
  7  9  1  0  0  0  0
  8 10  1  0  0  0  0
  9 11  1  0  0  0  0
 10 13  1  0  0  0  0
 11 13  1  0  0  0  0
 12 14  1  0  0  0  0
  1 15  1  0  0  0  0
  2 16  1  0  0  0  0
  3 17  1  0  0  0  0
  4 18  1  0  0  0  0
  7 19  1  0  0  0  0
  7 20  1  0  0  0  0
  8 21  1  0  0  0  0
  8 22  1  0  0  0  0
  9 23  1  0  0  0  0
  9 24  1  0  0  0  0
 10 25  1  0  0  0  0
 10 26  1  0  0  0  0
 11 27  1  0  0  0  0
 11 28  1  0  0  0  0
 12 29  1  0  0  0  0
 12 30  1  0  0  0  0
 14 31  1  0  0  0  0
 14 32  1  0  0  0  0
M  END
$$$$
frag.vs.334
  -OEChem-01121112263D

 30 31  0     0  0  0  0  0  0999 V2000
    3.3274   -1.9874    2.9554 C   0  0  0  0  0  0  0  0  0  0  0  0
    3.2704   -1.2872    1.7504 C   0  0  0  0  0  0  0  0  0  0  0  0
    2.2187   -2.7112    3.3945 C   0  0  0  0  0  0  0  0  0  0  0  0
    2.1049   -1.3106    0.9846 C   0  0  0  0  0  0  0  0  0  0  0  0
    1.0532   -2.7346    2.6287 C   0  0  0  0  0  0  0  0  0  0  0  0
    0.9962   -2.0343    1.4237 C   0  0  0  0  0  0  0  0  0  0  0  0
   -0.3054   -3.0989   -0.3729 C   0  0  0  0  0  0  0  0  0  0  0  0
   -0.8548   -0.7885    0.3390 C   0  0  0  0  0  0  0  0  0  0  0  0
   -1.7753   -3.2644   -0.7417 C   0  0  0  0  0  0  0  0  0  0  0  0
   -2.2954   -1.0771   -0.0684 C   0  0  0  0  0  0  0  0  0  0  0  0
   -0.1191   -3.5180    3.1231 C   0  0  0  0  0  0  0  0  0  0  0  0
   -0.1641   -2.0466    0.6428 N   0  0  0  0  0  0  0  0  0  0  0  0
   -1.1537   -2.6716    3.6584 N   0  0  0  0  0  0  0  0  0  0  0  0
   -2.3326   -2.0135   -1.1448 O   0  0  0  0  0  0  0  0  0  0  0  0
    4.2350   -1.9690    3.5517 H   0  0  0  0  0  0  0  0  0  0  0  0
    4.1337   -0.7237    1.4086 H   0  0  0  0  0  0  0  0  0  0  0  0
    2.2734   -3.2534    4.3349 H   0  0  0  0  0  0  0  0  0  0  0  0
    2.0723   -0.7610    0.0472 H   0  0  0  0  0  0  0  0  0  0  0  0
    0.0877   -4.0526   -0.0016 H   0  0  0  0  0  0  0  0  0  0  0  0
    0.2667   -2.8143   -1.2653 H   0  0  0  0  0  0  0  0  0  0  0  0
   -0.3355   -0.2834   -0.4856 H   0  0  0  0  0  0  0  0  0  0  0  0
   -0.8485   -0.1215    1.2090 H   0  0  0  0  0  0  0  0  0  0  0  0
   -1.8729   -3.9622   -1.5794 H   0  0  0  0  0  0  0  0  0  0  0  0
   -2.3556   -3.6697    0.0961 H   0  0  0  0  0  0  0  0  0  0  0  0
   -2.8771   -1.4692    0.7747 H   0  0  0  0  0  0  0  0  0  0  0  0
   -2.7806   -0.1556   -0.4055 H   0  0  0  0  0  0  0  0  0  0  0  0
   -0.5630   -4.1141    2.3149 H   0  0  0  0  0  0  0  0  0  0  0  0
    0.1738   -4.2205    3.9141 H   0  0  0  0  0  0  0  0  0  0  0  0
   -1.7840   -3.0457    4.3485 H   0  0  0  0  0  0  0  0  0  0  0  0
   -1.3606   -1.8006    3.1977 H   0  0  0  0  0  0  0  0  0  0  0  0
  1  2  1  0  0  0  0
  1  3  2  0  0  0  0
  2  4  2  0  0  0  0
  3  5  1  0  0  0  0
  4  6  1  0  0  0  0
  5  6  2  0  0  0  0
  5 11  1  0  0  0  0
  6 12  1  0  0  0  0
  7  9  1  0  0  0  0
  7 12  1  0  0  0  0
  8 10  1  0  0  0  0
  8 12  1  0  0  0  0
  9 14  1  0  0  0  0
 10 14  1  0  0  0  0
 11 13  1  0  0  0  0
  1 15  1  0  0  0  0
  2 16  1  0  0  0  0
  3 17  1  0  0  0  0
  4 18  1  0  0  0  0
  7 19  1  0  0  0  0
  7 20  1  0  0  0  0
  8 21  1  0  0  0  0
  8 22  1  0  0  0  0
  9 23  1  0  0  0  0
  9 24  1  0  0  0  0
 10 25  1  0  0  0  0
 10 26  1  0  0  0  0
 11 27  1  0  0  0  0
 11 28  1  0  0  0  0
 13 29  1  0  0  0  0
 13 30  1  0  0  0  0
M  END
$$$$
frag.vs.335
  -OEChem-01121112263D

 29 30  0     0  0  0  0  0  0999 V2000
    3.3274   -1.9874    2.9554 C   0  0  0  0  0  0  0  0  0  0  0  0
    3.2704   -1.2872    1.7504 C   0  0  0  0  0  0  0  0  0  0  0  0
    2.2187   -2.7112    3.3945 C   0  0  0  0  0  0  0  0  0  0  0  0
    2.1049   -1.3106    0.9846 C   0  0  0  0  0  0  0  0  0  0  0  0
    1.0532   -2.7346    2.6287 C   0  0  0  0  0  0  0  0  0  0  0  0
    0.9962   -2.0343    1.4237 C   0  0  0  0  0  0  0  0  0  0  0  0
   -0.3054   -3.0989   -0.3729 C   0  0  0  0  0  0  0  0  0  0  0  0
   -0.8548   -0.7885    0.3390 C   0  0  0  0  0  0  0  0  0  0  0  0
   -1.7753   -3.2644   -0.7417 C   0  0  0  0  0  0  0  0  0  0  0  0
   -2.2954   -1.0771   -0.0684 C   0  0  0  0  0  0  0  0  0  0  0  0
   -0.1191   -3.5180    3.1231 C   0  0  0  0  0  0  0  0  0  0  0  0
   -0.1641   -2.0466    0.6428 N   0  0  0  0  0  0  0  0  0  0  0  0
   -2.3326   -2.0135   -1.1448 O   0  0  0  0  0  0  0  0  0  0  0  0
   -1.1019   -2.6241    3.6287 O   0  0  0  0  0  0  0  0  0  0  0  0
    4.2350   -1.9690    3.5517 H   0  0  0  0  0  0  0  0  0  0  0  0
    4.1337   -0.7237    1.4086 H   0  0  0  0  0  0  0  0  0  0  0  0
    2.2734   -3.2534    4.3349 H   0  0  0  0  0  0  0  0  0  0  0  0
    2.0723   -0.7610    0.0472 H   0  0  0  0  0  0  0  0  0  0  0  0
    0.0877   -4.0526   -0.0016 H   0  0  0  0  0  0  0  0  0  0  0  0
    0.2667   -2.8143   -1.2653 H   0  0  0  0  0  0  0  0  0  0  0  0
   -0.3355   -0.2834   -0.4856 H   0  0  0  0  0  0  0  0  0  0  0  0
   -0.8485   -0.1215    1.2090 H   0  0  0  0  0  0  0  0  0  0  0  0
   -1.8729   -3.9622   -1.5794 H   0  0  0  0  0  0  0  0  0  0  0  0
   -2.3556   -3.6697    0.0961 H   0  0  0  0  0  0  0  0  0  0  0  0
   -2.8771   -1.4692    0.7747 H   0  0  0  0  0  0  0  0  0  0  0  0
   -2.7806   -0.1556   -0.4055 H   0  0  0  0  0  0  0  0  0  0  0  0
   -0.5665   -4.1157    2.3186 H   0  0  0  0  0  0  0  0  0  0  0  0
    0.1775   -4.2085    3.9231 H   0  0  0  0  0  0  0  0  0  0  0  0
   -1.8432   -3.1690    3.9384 H   0  0  0  0  0  0  0  0  0  0  0  0
  1  2  1  0  0  0  0
  1  3  2  0  0  0  0
  2  4  2  0  0  0  0
  3  5  1  0  0  0  0
  4  6  1  0  0  0  0
  5  6  2  0  0  0  0
  5 11  1  0  0  0  0
  6 12  1  0  0  0  0
  7  9  1  0  0  0  0
  7 12  1  0  0  0  0
  8 10  1  0  0  0  0
  8 12  1  0  0  0  0
  9 13  1  0  0  0  0
 10 13  1  0  0  0  0
 11 14  1  0  0  0  0
  1 15  1  0  0  0  0
  2 16  1  0  0  0  0
  3 17  1  0  0  0  0
  4 18  1  0  0  0  0
  7 19  1  0  0  0  0
  7 20  1  0  0  0  0
  8 21  1  0  0  0  0
  8 22  1  0  0  0  0
  9 23  1  0  0  0  0
  9 24  1  0  0  0  0
 10 25  1  0  0  0  0
 10 26  1  0  0  0  0
 11 27  1  0  0  0  0
 11 28  1  0  0  0  0
 14 29  1  0  0  0  0
M  END
$$$$
frag.vs.336
  -OEChem-01121112263D

 27 28  0     0  0  0  0  0  0999 V2000
    2.0219   -2.0146    3.6111 C   0  0  0  0  0  0  0  0  0  0  0  0
    3.2848   -2.0076    3.0189 C   0  0  0  0  0  0  0  0  0  0  0  0
    0.8776   -2.0280    2.8135 C   0  0  0  0  0  0  0  0  0  0  0  0
    3.4034   -2.0139    1.6291 C   0  0  0  0  0  0  0  0  0  0  0  0
    0.9962   -2.0343    1.4237 C   0  0  0  0  0  0  0  0  0  0  0  0
    2.2591   -2.0273    0.8314 C   0  0  0  0  0  0  0  0  0  0  0  0
   -0.7487   -0.7573    0.2490 C   0  0  0  0  0  0  0  0  0  0  0  0
   -1.1193   -3.1528    0.7691 C   0  0  0  0  0  0  0  0  0  0  0  0
   -1.6486   -0.9498   -0.9663 C   0  0  0  0  0  0  0  0  0  0  0  0
   -2.0000   -3.2173   -0.4738 C   0  0  0  0  0  0  0  0  0  0  0  0
   -0.1641   -2.0466    0.6428 N   0  0  0  0  0  0  0  0  0  0  0  0
    2.4022   -2.0335   -0.5741 N   0  0  0  0  0  0  0  0  0  0  0  0
   -2.6269   -1.9569   -0.7084 O   0  0  0  0  0  0  0  0  0  0  0  0
    1.9296   -2.0103    4.6932 H   0  0  0  0  0  0  0  0  0  0  0  0
    4.1756   -1.9980    3.6399 H   0  0  0  0  0  0  0  0  0  0  0  0
   -0.1012   -2.0331    3.2865 H   0  0  0  0  0  0  0  0  0  0  0  0
    4.3929   -2.0090    1.1790 H   0  0  0  0  0  0  0  0  0  0  0  0
    0.0372   -0.0311    0.0104 H   0  0  0  0  0  0  0  0  0  0  0  0
   -1.3406   -0.3624    1.0847 H   0  0  0  0  0  0  0  0  0  0  0  0
   -1.7468   -2.9866    1.6541 H   0  0  0  0  0  0  0  0  0  0  0  0
   -0.5946   -4.1073    0.8942 H   0  0  0  0  0  0  0  0  0  0  0  0
   -2.1762   -0.0173   -1.1906 H   0  0  0  0  0  0  0  0  0  0  0  0
   -1.0681   -1.2238   -1.8556 H   0  0  0  0  0  0  0  0  0  0  0  0
   -1.4198   -3.5051   -1.3589 H   0  0  0  0  0  0  0  0  0  0  0  0
   -2.7870   -3.9655   -0.3361 H   0  0  0  0  0  0  0  0  0  0  0  0
    3.3180   -1.9806   -0.9690 H   0  0  0  0  0  0  0  0  0  0  0  0
    1.5837   -1.9954   -1.1453 H   0  0  0  0  0  0  0  0  0  0  0  0
  1  2  1  0  0  0  0
  1  3  2  0  0  0  0
  2  4  2  0  0  0  0
  3  5  1  0  0  0  0
  4  6  1  0  0  0  0
  5  6  2  0  0  0  0
  5 11  1  0  0  0  0
  6 12  1  0  0  0  0
  7  9  1  0  0  0  0
  7 11  1  0  0  0  0
  8 10  1  0  0  0  0
  8 11  1  0  0  0  0
  9 13  1  0  0  0  0
 10 13  1  0  0  0  0
  1 14  1  0  0  0  0
  2 15  1  0  0  0  0
  3 16  1  0  0  0  0
  4 17  1  0  0  0  0
  7 18  1  0  0  0  0
  7 19  1  0  0  0  0
  8 20  1  0  0  0  0
  8 21  1  0  0  0  0
  9 22  1  0  0  0  0
  9 23  1  0  0  0  0
 10 24  1  0  0  0  0
 10 25  1  0  0  0  0
 12 26  1  0  0  0  0
 12 27  1  0  0  0  0
M  END
$$$$
frag.vs.337
  -OEChem-01121112263D

 26 27  0     0  0  0  0  0  0999 V2000
    2.1311   -2.6309    3.4714 C   0  0  0  0  0  0  0  0  0  0  0  0
    3.2964   -2.0249    3.0021 C   0  0  0  0  0  0  0  0  0  0  0  0
    0.9809   -2.6356    2.6822 C   0  0  0  0  0  0  0  0  0  0  0  0
    3.3117   -1.4236    1.7436 C   0  0  0  0  0  0  0  0  0  0  0  0
    0.9962   -2.0343    1.4237 C   0  0  0  0  0  0  0  0  0  0  0  0
    2.1616   -1.4283    0.9544 C   0  0  0  0  0  0  0  0  0  0  0  0
   -0.7487   -0.7573    0.2490 C   0  0  0  0  0  0  0  0  0  0  0  0
   -1.1193   -3.1528    0.7691 C   0  0  0  0  0  0  0  0  0  0  0  0
   -1.6486   -0.9498   -0.9663 C   0  0  0  0  0  0  0  0  0  0  0  0
   -2.0000   -3.2173   -0.4738 C   0  0  0  0  0  0  0  0  0  0  0  0
   -0.1641   -2.0466    0.6428 N   0  0  0  0  0  0  0  0  0  0  0  0
   -2.6269   -1.9569   -0.7084 O   0  0  0  0  0  0  0  0  0  0  0  0
    2.1973   -0.8351   -0.2721 O   0  0  0  0  0  0  0  0  0  0  0  0
    2.1190   -3.0983    4.4516 H   0  0  0  0  0  0  0  0  0  0  0  0
    4.1919   -2.0216    3.6165 H   0  0  0  0  0  0  0  0  0  0  0  0
    0.0785   -3.1114    3.0582 H   0  0  0  0  0  0  0  0  0  0  0  0
    4.2231   -0.9536    1.3836 H   0  0  0  0  0  0  0  0  0  0  0  0
    0.0372   -0.0311    0.0104 H   0  0  0  0  0  0  0  0  0  0  0  0
   -1.3406   -0.3624    1.0847 H   0  0  0  0  0  0  0  0  0  0  0  0
   -1.7468   -2.9866    1.6541 H   0  0  0  0  0  0  0  0  0  0  0  0
   -0.5946   -4.1073    0.8942 H   0  0  0  0  0  0  0  0  0  0  0  0
   -2.1762   -0.0173   -1.1906 H   0  0  0  0  0  0  0  0  0  0  0  0
   -1.0681   -1.2238   -1.8556 H   0  0  0  0  0  0  0  0  0  0  0  0
   -1.4198   -3.5051   -1.3589 H   0  0  0  0  0  0  0  0  0  0  0  0
   -2.7870   -3.9655   -0.3361 H   0  0  0  0  0  0  0  0  0  0  0  0
    3.0783   -0.4656   -0.4395 H   0  0  0  0  0  0  0  0  0  0  0  0
  1  2  1  0  0  0  0
  1  3  2  0  0  0  0
  2  4  2  0  0  0  0
  3  5  1  0  0  0  0
  4  6  1  0  0  0  0
  5  6  2  0  0  0  0
  5 11  1  0  0  0  0
  6 13  1  0  0  0  0
  7  9  1  0  0  0  0
  7 11  1  0  0  0  0
  8 10  1  0  0  0  0
  8 11  1  0  0  0  0
  9 12  1  0  0  0  0
 10 12  1  0  0  0  0
  1 14  1  0  0  0  0
  2 15  1  0  0  0  0
  3 16  1  0  0  0  0
  4 17  1  0  0  0  0
  7 18  1  0  0  0  0
  7 19  1  0  0  0  0
  8 20  1  0  0  0  0
  8 21  1  0  0  0  0
  9 22  1  0  0  0  0
  9 23  1  0  0  0  0
 10 24  1  0  0  0  0
 10 25  1  0  0  0  0
 13 26  1  0  0  0  0
M  END
$$$$
frag.vs.338
  -OEChem-01121112263D

 23 24  0     0  0  0  0  0  0999 V2000
    1.8851   -1.0363   -0.1124 C   0  0  0  0  0  0  0  0  0  0  0  0
    5.7960   -3.3029    3.1973 C   0  0  0  0  0  0  0  0  0  0  0  0
    5.1389   -2.9785    4.4098 C   0  0  0  0  0  0  0  0  0  0  0  0
    0.8066   -0.4630    0.5610 C   0  0  0  0  0  0  0  0  0  0  0  0
    2.9210   -1.6309    0.6081 C   0  0  0  0  0  0  0  0  0  0  0  0
    1.7997   -1.0786    2.6757 C   0  0  0  0  0  0  0  0  0  0  0  0
    5.0111   -2.8357    2.1663 C   0  0  0  0  0  0  0  0  0  0  0  0
    3.9723   -2.3230    4.0828 C   0  0  0  0  0  0  0  0  0  0  0  0
    0.7638   -0.4841    1.9551 C   0  0  0  0  0  0  0  0  0  0  0  0
    2.8783   -1.6520    2.0022 C   0  0  0  0  0  0  0  0  0  0  0  0
   -0.3614    0.1139    2.6560 C   0  0  0  0  0  0  0  0  0  0  0  0
    3.9050   -2.2422    2.7164 N   0  0  0  0  0  0  0  0  0  0  0  0
   -0.5023    0.1523    3.8827 O   0  0  0  0  0  0  0  0  0  0  0  0
   -1.2796    0.6491    1.8053 O   0  0  0  0  0  0  0  0  0  0  0  0
    1.9181   -1.0204   -1.1979 H   0  0  0  0  0  0  0  0  0  0  0  0
    6.7382   -3.8209    3.0867 H   0  0  0  0  0  0  0  0  0  0  0  0
    5.4777   -3.1986    5.4125 H   0  0  0  0  0  0  0  0  0  0  0  0
    0.0060   -0.0014   -0.0112 H   0  0  0  0  0  0  0  0  0  0  0  0
    3.7561   -2.0737    0.0708 H   0  0  0  0  0  0  0  0  0  0  0  0
    1.7647   -1.0922    3.7633 H   0  0  0  0  0  0  0  0  0  0  0  0
    5.1517   -2.8819    1.0940 H   0  0  0  0  0  0  0  0  0  0  0  0
    3.1928   -1.9123    4.7114 H   0  0  0  0  0  0  0  0  0  0  0  0
   -2.0425    1.0560    2.2687 H   0  0  0  0  0  0  0  0  0  0  0  0
  1  4  1  0  0  0  0
  1  5  2  0  0  0  0
  2  3  1  0  0  0  0
  2  7  2  0  0  0  0
  3  8  2  0  0  0  0
  4  9  2  0  0  0  0
  5 10  1  0  0  0  0
  6  9  1  0  0  0  0
  6 10  2  0  0  0  0
  7 12  1  0  0  0  0
  8 12  1  0  0  0  0
  9 11  1  0  0  0  0
 10 12  1  0  0  0  0
 11 13  2  0  0  0  0
 11 14  1  0  0  0  0
  1 15  1  0  0  0  0
  2 16  1  0  0  0  0
  3 17  1  0  0  0  0
  4 18  1  0  0  0  0
  5 19  1  0  0  0  0
  6 20  1  0  0  0  0
  7 21  1  0  0  0  0
  8 22  1  0  0  0  0
 14 23  1  0  0  0  0
M  END
$$$$
frag.vs.339
  -OEChem-01121112263D

 25 26  0     0  0  0  0  0  0999 V2000
    1.8851   -1.0363   -0.1124 C   0  0  0  0  0  0  0  0  0  0  0  0
    5.7950   -3.3033    3.1985 C   0  0  0  0  0  0  0  0  0  0  0  0
    5.1376   -2.9785    4.4107 C   0  0  0  0  0  0  0  0  0  0  0  0
    0.8066   -0.4630    0.5610 C   0  0  0  0  0  0  0  0  0  0  0  0
    2.9210   -1.6309    0.6081 C   0  0  0  0  0  0  0  0  0  0  0  0
    1.7997   -1.0786    2.6757 C   0  0  0  0  0  0  0  0  0  0  0  0
    5.0106   -2.8362    2.1671 C   0  0  0  0  0  0  0  0  0  0  0  0
    3.9713   -2.3228    4.0832 C   0  0  0  0  0  0  0  0  0  0  0  0
    0.7638   -0.4841    1.9551 C   0  0  0  0  0  0  0  0  0  0  0  0
    2.8783   -1.6520    2.0022 C   0  0  0  0  0  0  0  0  0  0  0  0
   -0.3900    0.1290    2.6741 C   0  0  0  0  0  0  0  0  0  0  0  0
    3.9045   -2.2423    2.7167 N   0  0  0  0  0  0  0  0  0  0  0  0
   -1.2989   -0.8601    3.1953 N   0  0  0  0  0  0  0  0  0  0  0  0
    1.9182   -1.0201   -1.1979 H   0  0  0  0  0  0  0  0  0  0  0  0
    6.7372   -3.8216    3.0883 H   0  0  0  0  0  0  0  0  0  0  0  0
    5.4761   -3.1985    5.4135 H   0  0  0  0  0  0  0  0  0  0  0  0
    0.0045   -0.0014   -0.0087 H   0  0  0  0  0  0  0  0  0  0  0  0
    3.7558   -2.0741    0.0704 H   0  0  0  0  0  0  0  0  0  0  0  0
    1.7624   -1.0915    3.7632 H   0  0  0  0  0  0  0  0  0  0  0  0
    5.1516   -2.8826    1.0949 H   0  0  0  0  0  0  0  0  0  0  0  0
    3.1917   -1.9118    4.7114 H   0  0  0  0  0  0  0  0  0  0  0  0
   -0.0489    0.7420    3.5202 H   0  0  0  0  0  0  0  0  0  0  0  0
   -0.9691    0.7913    2.0159 H   0  0  0  0  0  0  0  0  0  0  0  0
   -2.2628   -0.6100    3.3394 H   0  0  0  0  0  0  0  0  0  0  0  0
   -0.9251   -1.7052    3.5936 H   0  0  0  0  0  0  0  0  0  0  0  0
  1  4  1  0  0  0  0
  1  5  2  0  0  0  0
  2  3  1  0  0  0  0
  2  7  2  0  0  0  0
  3  8  2  0  0  0  0
  4  9  2  0  0  0  0
  5 10  1  0  0  0  0
  6  9  1  0  0  0  0
  6 10  2  0  0  0  0
  7 12  1  0  0  0  0
  8 12  1  0  0  0  0
  9 11  1  0  0  0  0
 10 12  1  0  0  0  0
 11 13  1  0  0  0  0
  1 14  1  0  0  0  0
  2 15  1  0  0  0  0
  3 16  1  0  0  0  0
  4 17  1  0  0  0  0
  5 18  1  0  0  0  0
  6 19  1  0  0  0  0
  7 20  1  0  0  0  0
  8 21  1  0  0  0  0
 11 22  1  0  0  0  0
 11 23  1  0  0  0  0
 13 24  1  0  0  0  0
 13 25  1  0  0  0  0
M  END
$$$$
frag.vs.340
  -OEChem-01121112263D

 22 23  0     0  0  0  0  0  0999 V2000
    1.8851   -1.0363   -0.1124 C   0  0  0  0  0  0  0  0  0  0  0  0
   -2.2260    1.1277    3.0182 C   0  0  0  0  0  0  0  0  0  0  0  0
   -1.6437    0.7672    4.2583 C   0  0  0  0  0  0  0  0  0  0  0  0
    0.8066   -0.4630    0.5610 C   0  0  0  0  0  0  0  0  0  0  0  0
    2.9210   -1.6309    0.6081 C   0  0  0  0  0  0  0  0  0  0  0  0
    1.7997   -1.0786    2.6757 C   0  0  0  0  0  0  0  0  0  0  0  0
   -1.3782    0.6926    2.0237 C   0  0  0  0  0  0  0  0  0  0  0  0
   -0.4575    0.1229    3.9839 C   0  0  0  0  0  0  0  0  0  0  0  0
    0.7638   -0.4841    1.9551 C   0  0  0  0  0  0  0  0  0  0  0  0
    2.8783   -1.6520    2.0022 C   0  0  0  0  0  0  0  0  0  0  0  0
   -0.3064    0.0835    2.6224 N   0  0  0  0  0  0  0  0  0  0  0  0
    3.9256   -2.2537    2.7306 N   0  0  0  0  0  0  0  0  0  0  0  0
    1.9183   -1.0201   -1.1978 H   0  0  0  0  0  0  0  0  0  0  0  0
   -3.1611    1.6481    2.8656 H   0  0  0  0  0  0  0  0  0  0  0  0
   -2.0439    0.9566    5.2445 H   0  0  0  0  0  0  0  0  0  0  0  0
    0.0054   -0.0040   -0.0132 H   0  0  0  0  0  0  0  0  0  0  0  0
    3.7571   -2.0746    0.0731 H   0  0  0  0  0  0  0  0  0  0  0  0
    1.7691   -1.0971    3.7633 H   0  0  0  0  0  0  0  0  0  0  0  0
   -1.4529    0.7711    0.9466 H   0  0  0  0  0  0  0  0  0  0  0  0
    0.2830   -0.3061    4.6465 H   0  0  0  0  0  0  0  0  0  0  0  0
    4.6691   -2.7028    2.2352 H   0  0  0  0  0  0  0  0  0  0  0  0
    3.8602   -2.3040    3.7271 H   0  0  0  0  0  0  0  0  0  0  0  0
  1  4  2  0  0  0  0
  1  5  1  0  0  0  0
  2  3  1  0  0  0  0
  2  7  2  0  0  0  0
  3  8  2  0  0  0  0
  4  9  1  0  0  0  0
  5 10  2  0  0  0  0
  6  9  2  0  0  0  0
  6 10  1  0  0  0  0
  7 11  1  0  0  0  0
  8 11  1  0  0  0  0
  9 11  1  0  0  0  0
 10 12  1  0  0  0  0
  1 13  1  0  0  0  0
  2 14  1  0  0  0  0
  3 15  1  0  0  0  0
  4 16  1  0  0  0  0
  5 17  1  0  0  0  0
  6 18  1  0  0  0  0
  7 19  1  0  0  0  0
  8 20  1  0  0  0  0
 12 21  1  0  0  0  0
 12 22  1  0  0  0  0
M  END
$$$$
frag.vs.341
  -OEChem-01121112263D

 26 27  0     0  0  0  0  0  0999 V2000
    2.1524   -2.6207    3.4623 C   0  0  0  0  0  0  0  0  0  0  0  0
    0.9949   -2.6319    2.6841 C   0  0  0  0  0  0  0  0  0  0  0  0
    3.3112   -2.0119    2.9803 C   0  0  0  0  0  0  0  0  0  0  0  0
    2.1550   -1.4255    0.9416 C   0  0  0  0  0  0  0  0  0  0  0  0
    0.9962   -2.0343    1.4237 C   0  0  0  0  0  0  0  0  0  0  0  0
    3.3124   -1.4143    1.7199 C   0  0  0  0  0  0  0  0  0  0  0  0
   -0.7487   -0.7573    0.2490 C   0  0  0  0  0  0  0  0  0  0  0  0
   -1.1193   -3.1528    0.7691 C   0  0  0  0  0  0  0  0  0  0  0  0
   -1.6486   -0.9498   -0.9663 C   0  0  0  0  0  0  0  0  0  0  0  0
   -2.0000   -3.2173   -0.4738 C   0  0  0  0  0  0  0  0  0  0  0  0
   -0.1641   -2.0466    0.6428 N   0  0  0  0  0  0  0  0  0  0  0  0
   -2.6269   -1.9569   -0.7084 O   0  0  0  0  0  0  0  0  0  0  0  0
    4.4432   -0.8202    1.2498 O   0  0  0  0  0  0  0  0  0  0  0  0
    2.1516   -3.0862    4.4436 H   0  0  0  0  0  0  0  0  0  0  0  0
    0.0980   -3.1104    3.0690 H   0  0  0  0  0  0  0  0  0  0  0  0
    4.2095   -2.0058    3.5915 H   0  0  0  0  0  0  0  0  0  0  0  0
    2.1609   -0.9584   -0.0405 H   0  0  0  0  0  0  0  0  0  0  0  0
    0.0372   -0.0311    0.0104 H   0  0  0  0  0  0  0  0  0  0  0  0
   -1.3406   -0.3624    1.0847 H   0  0  0  0  0  0  0  0  0  0  0  0
   -1.7468   -2.9866    1.6541 H   0  0  0  0  0  0  0  0  0  0  0  0
   -0.5946   -4.1073    0.8942 H   0  0  0  0  0  0  0  0  0  0  0  0
   -2.1762   -0.0173   -1.1906 H   0  0  0  0  0  0  0  0  0  0  0  0
   -1.0681   -1.2238   -1.8556 H   0  0  0  0  0  0  0  0  0  0  0  0
   -1.4198   -3.5051   -1.3589 H   0  0  0  0  0  0  0  0  0  0  0  0
   -2.7870   -3.9655   -0.3361 H   0  0  0  0  0  0  0  0  0  0  0  0
    4.2871   -0.4524    0.3654 H   0  0  0  0  0  0  0  0  0  0  0  0
  1  2  1  0  0  0  0
  1  3  2  0  0  0  0
  2  5  2  0  0  0  0
  3  6  1  0  0  0  0
  4  5  1  0  0  0  0
  4  6  2  0  0  0  0
  5 11  1  0  0  0  0
  6 13  1  0  0  0  0
  7  9  1  0  0  0  0
  7 11  1  0  0  0  0
  8 10  1  0  0  0  0
  8 11  1  0  0  0  0
  9 12  1  0  0  0  0
 10 12  1  0  0  0  0
  1 14  1  0  0  0  0
  2 15  1  0  0  0  0
  3 16  1  0  0  0  0
  4 17  1  0  0  0  0
  7 18  1  0  0  0  0
  7 19  1  0  0  0  0
  8 20  1  0  0  0  0
  8 21  1  0  0  0  0
  9 22  1  0  0  0  0
  9 23  1  0  0  0  0
 10 24  1  0  0  0  0
 10 25  1  0  0  0  0
 13 26  1  0  0  0  0
M  END
$$$$
frag.vs.342
  -OEChem-01121112263D

 30 31  0     0  0  0  0  0  0999 V2000
    5.9525   -0.2716    2.2654 C   0  0  0  0  0  0  0  0  0  0  0  0
    4.7024   -0.5835    1.7312 C   0  0  0  0  0  0  0  0  0  0  0  0
    6.1595   -0.3416    3.6430 C   0  0  0  0  0  0  0  0  0  0  0  0
    3.8660   -1.0353    3.9523 C   0  0  0  0  0  0  0  0  0  0  0  0
    3.6591   -0.9653    2.5746 C   0  0  0  0  0  0  0  0  0  0  0  0
    5.1162   -0.7234    4.4865 C   0  0  0  0  0  0  0  0  0  0  0  0
   -0.0515   -1.2393    2.2216 C   0  0  0  0  0  0  0  0  0  0  0  0
    0.9711   -2.5620    0.5041 C   0  0  0  0  0  0  0  0  0  0  0  0
    1.2499   -0.4783    2.4721 C   0  0  0  0  0  0  0  0  0  0  0  0
    2.3111   -1.8511    0.6920 C   0  0  0  0  0  0  0  0  0  0  0  0
    6.6210   -0.4597    6.3091 C   0  0  0  0  0  0  0  0  0  0  0  0
   -0.1506   -1.6837    0.8322 N   0  0  0  0  0  0  0  0  0  0  0  0
    2.4044   -1.2770    2.0387 N   0  0  0  0  0  0  0  0  0  0  0  0
    5.3185   -0.7918    5.8307 O   0  0  0  0  0  0  0  0  0  0  0  0
    6.7649    0.0259    1.6087 H   0  0  0  0  0  0  0  0  0  0  0  0
    4.5518   -0.5242    0.6563 H   0  0  0  0  0  0  0  0  0  0  0  0
    7.1358   -0.0982    4.0532 H   0  0  0  0  0  0  0  0  0  0  0  0
    3.0557   -1.3322    4.6140 H   0  0  0  0  0  0  0  0  0  0  0  0
   -0.1207   -2.1026    2.8954 H   0  0  0  0  0  0  0  0  0  0  0  0
   -0.9004   -0.5858    2.4503 H   0  0  0  0  0  0  0  0  0  0  0  0
    0.8791   -2.8868   -0.5381 H   0  0  0  0  0  0  0  0  0  0  0  0
    0.9319   -3.4652    1.1260 H   0  0  0  0  0  0  0  0  0  0  0  0
    1.2349    0.4760    1.9290 H   0  0  0  0  0  0  0  0  0  0  0  0
    1.3281   -0.2510    3.5425 H   0  0  0  0  0  0  0  0  0  0  0  0
    3.1213   -2.5731    0.5313 H   0  0  0  0  0  0  0  0  0  0  0  0
    2.4199   -1.0566   -0.0583 H   0  0  0  0  0  0  0  0  0  0  0  0
    6.6456   -0.5553    7.3974 H   0  0  0  0  0  0  0  0  0  0  0  0
    6.8673    0.5642    6.0170 H   0  0  0  0  0  0  0  0  0  0  0  0
    7.3473   -1.1469    5.8687 H   0  0  0  0  0  0  0  0  0  0  0  0
   -1.0248   -2.1924    0.7034 H   0  0  0  0  0  0  0  0  0  0  0  0
  1  2  1  0  0  0  0
  1  3  2  0  0  0  0
  2  5  2  0  0  0  0
  3  6  1  0  0  0  0
  4  5  1  0  0  0  0
  4  6  2  0  0  0  0
  5 13  1  0  0  0  0
  6 14  1  0  0  0  0
  7  9  1  0  0  0  0
  7 12  1  0  0  0  0
  8 10  1  0  0  0  0
  8 12  1  0  0  0  0
  9 13  1  0  0  0  0
 10 13  1  0  0  0  0
 11 14  1  0  0  0  0
  1 15  1  0  0  0  0
  2 16  1  0  0  0  0
  3 17  1  0  0  0  0
  4 18  1  0  0  0  0
  7 19  1  0  0  0  0
  7 20  1  0  0  0  0
  8 21  1  0  0  0  0
  8 22  1  0  0  0  0
  9 23  1  0  0  0  0
  9 24  1  0  0  0  0
 10 25  1  0  0  0  0
 10 26  1  0  0  0  0
 11 27  1  0  0  0  0
 11 28  1  0  0  0  0
 11 29  1  0  0  0  0
 12 30  1  0  0  0  0
M  END
$$$$
frag.vs.343
  -OEChem-01121112263D

 23 24  0     0  0  0  0  0  0999 V2000
   -2.2213    1.1344    3.0202 C   0  0  0  0  0  0  0  0  0  0  0  0
   -1.6392    0.7720    4.2599 C   0  0  0  0  0  0  0  0  0  0  0  0
    1.8851   -1.0363   -0.1124 C   0  0  0  0  0  0  0  0  0  0  0  0
    2.8783   -1.6520    2.0022 C   0  0  0  0  0  0  0  0  0  0  0  0
    0.8066   -0.4630    0.5610 C   0  0  0  0  0  0  0  0  0  0  0  0
    1.7997   -1.0786    2.6757 C   0  0  0  0  0  0  0  0  0  0  0  0
   -1.3751    0.6975    2.0251 C   0  0  0  0  0  0  0  0  0  0  0  0
   -0.4547    0.1249    3.9846 C   0  0  0  0  0  0  0  0  0  0  0  0
    2.9210   -1.6309    0.6081 C   0  0  0  0  0  0  0  0  0  0  0  0
    0.7638   -0.4841    1.9551 C   0  0  0  0  0  0  0  0  0  0  0  0
    4.0458   -2.2284   -0.0936 C   0  0  0  0  0  0  0  0  0  0  0  0
   -0.3044    0.0857    2.6230 N   0  0  0  0  0  0  0  0  0  0  0  0
    4.1863   -2.2660   -1.3205 O   0  0  0  0  0  0  0  0  0  0  0  0
    4.9658   -2.7617    0.7563 O   0  0  0  0  0  0  0  0  0  0  0  0
   -3.1552    1.6571    2.8684 H   0  0  0  0  0  0  0  0  0  0  0  0
   -2.0384    0.9621    5.2464 H   0  0  0  0  0  0  0  0  0  0  0  0
    1.9083   -1.0139   -1.1990 H   0  0  0  0  0  0  0  0  0  0  0  0
    3.6798   -2.1131    2.5735 H   0  0  0  0  0  0  0  0  0  0  0  0
    0.0054   -0.0032   -0.0128 H   0  0  0  0  0  0  0  0  0  0  0  0
    1.7794   -1.1017    3.7626 H   0  0  0  0  0  0  0  0  0  0  0  0
   -1.4502    0.7766    0.9481 H   0  0  0  0  0  0  0  0  0  0  0  0
    0.2852   -0.3061    4.6467 H   0  0  0  0  0  0  0  0  0  0  0  0
    5.7295   -3.1667    0.2924 H   0  0  0  0  0  0  0  0  0  0  0  0
  1  2  1  0  0  0  0
  1  7  2  0  0  0  0
  2  8  2  0  0  0  0
  3  5  2  0  0  0  0
  3  9  1  0  0  0  0
  4  6  1  0  0  0  0
  4  9  2  0  0  0  0
  5 10  1  0  0  0  0
  6 10  2  0  0  0  0
  7 12  1  0  0  0  0
  8 12  1  0  0  0  0
  9 11  1  0  0  0  0
 10 12  1  0  0  0  0
 11 13  2  0  0  0  0
 11 14  1  0  0  0  0
  1 15  1  0  0  0  0
  2 16  1  0  0  0  0
  3 17  1  0  0  0  0
  4 18  1  0  0  0  0
  5 19  1  0  0  0  0
  6 20  1  0  0  0  0
  7 21  1  0  0  0  0
  8 22  1  0  0  0  0
 14 23  1  0  0  0  0
M  END
$$$$
frag.vs.344
  -OEChem-01121112263D

 32 33  0     0  0  0  0  0  0999 V2000
    2.5275   -0.0691    4.1056 C   0  0  0  0  0  0  0  0  0  0  0  0
    0.4030   -1.1933    3.8608 C   0  0  0  0  0  0  0  0  0  0  0  0
    2.7091   -0.1113    2.7233 C   0  0  0  0  0  0  0  0  0  0  0  0
    0.5846   -1.2354    2.4784 C   0  0  0  0  0  0  0  0  0  0  0  0
    1.3744   -0.6102    4.6744 C   0  0  0  0  0  0  0  0  0  0  0  0
    1.7377   -0.6944    1.9097 C   0  0  0  0  0  0  0  0  0  0  0  0
    1.1851   -0.5662    6.1156 C   0  0  0  0  0  0  0  0  0  0  0  0
    0.7537   -0.7086   -0.3650 C   0  0  0  0  0  0  0  0  0  0  0  0
    3.0973   -1.4436    0.0030 C   0  0  0  0  0  0  0  0  0  0  0  0
    1.1590   -0.2571   -1.7703 C   0  0  0  0  0  0  0  0  0  0  0  0
    3.4272   -0.9673   -1.4135 C   0  0  0  0  0  0  0  0  0  0  0  0
    2.5985   -0.6737   -3.6556 C   0  0  0  0  0  0  0  0  0  0  0  0
    1.9200   -0.7367    0.5229 N   0  0  0  0  0  0  0  0  0  0  0  0
    2.2568   -1.0796   -2.2928 N   0  0  0  0  0  0  0  0  0  0  0  0
    1.9771   -0.0761    6.9273 O   0  0  0  0  0  0  0  0  0  0  0  0
    0.0106   -1.1346    6.5039 O   0  0  0  0  0  0  0  0  0  0  0  0
    3.2908    0.3877    4.7302 H   0  0  0  0  0  0  0  0  0  0  0  0
   -0.4993   -1.6179    4.2933 H   0  0  0  0  0  0  0  0  0  0  0  0
    3.6114    0.3133    2.2905 H   0  0  0  0  0  0  0  0  0  0  0  0
   -0.1787   -1.6922    1.8536 H   0  0  0  0  0  0  0  0  0  0  0  0
   -0.0020   -0.0153    0.0249 H   0  0  0  0  0  0  0  0  0  0  0  0
    0.2971   -1.7063   -0.4116 H   0  0  0  0  0  0  0  0  0  0  0  0
    2.9088   -2.5254   -0.0007 H   0  0  0  0  0  0  0  0  0  0  0  0
    3.9646   -1.2596    0.6493 H   0  0  0  0  0  0  0  0  0  0  0  0
    0.2822   -0.3423   -2.4238 H   0  0  0  0  0  0  0  0  0  0  0  0
    1.4461    0.8030   -1.7464 H   0  0  0  0  0  0  0  0  0  0  0  0
    3.7869    0.0699   -1.3772 H   0  0  0  0  0  0  0  0  0  0  0  0
    4.2479   -1.5836   -1.8002 H   0  0  0  0  0  0  0  0  0  0  0  0
    3.4162   -1.2904   -4.0375 H   0  0  0  0  0  0  0  0  0  0  0  0
    2.9111    0.3739   -3.6708 H   0  0  0  0  0  0  0  0  0  0  0  0
    1.7328   -0.7906   -4.3131 H   0  0  0  0  0  0  0  0  0  0  0  0
   -0.1270   -1.1092    7.4748 H   0  0  0  0  0  0  0  0  0  0  0  0
  1  3  2  0  0  0  0
  1  5  1  0  0  0  0
  2  4  1  0  0  0  0
  2  5  2  0  0  0  0
  3  6  1  0  0  0  0
  4  6  2  0  0  0  0
  5  7  1  0  0  0  0
  6 13  1  0  0  0  0
  7 15  2  0  0  0  0
  7 16  1  0  0  0  0
  8 10  1  0  0  0  0
  8 13  1  0  0  0  0
  9 11  1  0  0  0  0
  9 13  1  0  0  0  0
 10 14  1  0  0  0  0
 11 14  1  0  0  0  0
 12 14  1  0  0  0  0
  1 17  1  0  0  0  0
  2 18  1  0  0  0  0
  3 19  1  0  0  0  0
  4 20  1  0  0  0  0
  8 21  1  0  0  0  0
  8 22  1  0  0  0  0
  9 23  1  0  0  0  0
  9 24  1  0  0  0  0
 10 25  1  0  0  0  0
 10 26  1  0  0  0  0
 11 27  1  0  0  0  0
 11 28  1  0  0  0  0
 12 29  1  0  0  0  0
 12 30  1  0  0  0  0
 12 31  1  0  0  0  0
 16 32  1  0  0  0  0
M  END
$$$$
frag.vs.345
  -OEChem-01121112263D

 25 26  0     0  0  0  0  0  0999 V2000
   -2.2240    1.1290    3.0209 C   0  0  0  0  0  0  0  0  0  0  0  0
   -1.6410    0.7676    4.2605 C   0  0  0  0  0  0  0  0  0  0  0  0
    1.8851   -1.0363   -0.1124 C   0  0  0  0  0  0  0  0  0  0  0  0
    2.8783   -1.6520    2.0022 C   0  0  0  0  0  0  0  0  0  0  0  0
    0.8066   -0.4630    0.5610 C   0  0  0  0  0  0  0  0  0  0  0  0
    1.7997   -1.0786    2.6757 C   0  0  0  0  0  0  0  0  0  0  0  0
   -1.3772    0.6937    2.0256 C   0  0  0  0  0  0  0  0  0  0  0  0
   -0.4555    0.1226    3.9850 C   0  0  0  0  0  0  0  0  0  0  0  0
    2.9210   -1.6309    0.6081 C   0  0  0  0  0  0  0  0  0  0  0  0
    0.7638   -0.4841    1.9551 C   0  0  0  0  0  0  0  0  0  0  0  0
    4.0742   -2.2438   -0.1119 C   0  0  0  0  0  0  0  0  0  0  0  0
   -0.3053    0.0837    2.6233 N   0  0  0  0  0  0  0  0  0  0  0  0
    3.7375   -3.5128   -0.7058 N   0  0  0  0  0  0  0  0  0  0  0  0
   -3.1589    1.6500    2.8693 H   0  0  0  0  0  0  0  0  0  0  0  0
   -2.0404    0.9568    5.2471 H   0  0  0  0  0  0  0  0  0  0  0  0
    1.9108   -1.0156   -1.1987 H   0  0  0  0  0  0  0  0  0  0  0  0
    3.6807   -2.1132    2.5718 H   0  0  0  0  0  0  0  0  0  0  0  0
    0.0052   -0.0035   -0.0127 H   0  0  0  0  0  0  0  0  0  0  0  0
    1.7795   -1.1027    3.7626 H   0  0  0  0  0  0  0  0  0  0  0  0
   -1.4527    0.7727    0.9487 H   0  0  0  0  0  0  0  0  0  0  0  0
    0.2854   -0.3071    4.6468 H   0  0  0  0  0  0  0  0  0  0  0  0
    4.4326   -1.5874   -0.9172 H   0  0  0  0  0  0  0  0  0  0  0  0
    4.9257   -2.4133    0.5615 H   0  0  0  0  0  0  0  0  0  0  0  0
    4.4674   -4.1870   -0.8642 H   0  0  0  0  0  0  0  0  0  0  0  0
    2.8342   -3.6269   -1.1345 H   0  0  0  0  0  0  0  0  0  0  0  0
  1  2  1  0  0  0  0
  1  7  2  0  0  0  0
  2  8  2  0  0  0  0
  3  5  2  0  0  0  0
  3  9  1  0  0  0  0
  4  6  1  0  0  0  0
  4  9  2  0  0  0  0
  5 10  1  0  0  0  0
  6 10  2  0  0  0  0
  7 12  1  0  0  0  0
  8 12  1  0  0  0  0
  9 11  1  0  0  0  0
 10 12  1  0  0  0  0
 11 13  1  0  0  0  0
  1 14  1  0  0  0  0
  2 15  1  0  0  0  0
  3 16  1  0  0  0  0
  4 17  1  0  0  0  0
  5 18  1  0  0  0  0
  6 19  1  0  0  0  0
  7 20  1  0  0  0  0
  8 21  1  0  0  0  0
 11 22  1  0  0  0  0
 11 23  1  0  0  0  0
 13 24  1  0  0  0  0
 13 25  1  0  0  0  0
M  END
$$$$
frag.vs.346
  -OEChem-01121112263D

 34 35  0     0  0  0  0  0  0999 V2000
    0.4044   -1.1946    3.8613 C   0  0  0  0  0  0  0  0  0  0  0  0
    2.5298   -0.0721    4.1057 C   0  0  0  0  0  0  0  0  0  0  0  0
    0.5848   -1.2353    2.4788 C   0  0  0  0  0  0  0  0  0  0  0  0
    2.7103   -0.1128    2.7231 C   0  0  0  0  0  0  0  0  0  0  0  0
    1.3769   -0.6130    4.6748 C   0  0  0  0  0  0  0  0  0  0  0  0
    1.7377   -0.6944    1.9097 C   0  0  0  0  0  0  0  0  0  0  0  0
    0.7537   -0.7086   -0.3650 C   0  0  0  0  0  0  0  0  0  0  0  0
    3.0973   -1.4436    0.0030 C   0  0  0  0  0  0  0  0  0  0  0  0
    1.1590   -0.2571   -1.7703 C   0  0  0  0  0  0  0  0  0  0  0  0
    3.4272   -0.9673   -1.4135 C   0  0  0  0  0  0  0  0  0  0  0  0
    2.5985   -0.6737   -3.6556 C   0  0  0  0  0  0  0  0  0  0  0  0
    1.1846   -0.5686    6.1530 C   0  0  0  0  0  0  0  0  0  0  0  0
    1.9200   -0.7367    0.5229 N   0  0  0  0  0  0  0  0  0  0  0  0
    2.2568   -1.0796   -2.2928 N   0  0  0  0  0  0  0  0  0  0  0  0
    0.2293    0.4339    6.5514 N   0  0  0  0  0  0  0  0  0  0  0  0
   -0.4973   -1.6174    4.2960 H   0  0  0  0  0  0  0  0  0  0  0  0
    3.2920    0.3845    4.7313 H   0  0  0  0  0  0  0  0  0  0  0  0
   -0.1799   -1.6895    1.8539 H   0  0  0  0  0  0  0  0  0  0  0  0
    3.6122    0.3123    2.2904 H   0  0  0  0  0  0  0  0  0  0  0  0
   -0.0020   -0.0153    0.0249 H   0  0  0  0  0  0  0  0  0  0  0  0
    0.2971   -1.7063   -0.4116 H   0  0  0  0  0  0  0  0  0  0  0  0
    2.9088   -2.5254   -0.0007 H   0  0  0  0  0  0  0  0  0  0  0  0
    3.9646   -1.2596    0.6493 H   0  0  0  0  0  0  0  0  0  0  0  0
    0.2822   -0.3423   -2.4238 H   0  0  0  0  0  0  0  0  0  0  0  0
    1.4461    0.8030   -1.7464 H   0  0  0  0  0  0  0  0  0  0  0  0
    3.7869    0.0699   -1.3772 H   0  0  0  0  0  0  0  0  0  0  0  0
    4.2479   -1.5836   -1.8002 H   0  0  0  0  0  0  0  0  0  0  0  0
    3.4162   -1.2904   -4.0375 H   0  0  0  0  0  0  0  0  0  0  0  0
    2.9111    0.3739   -3.6708 H   0  0  0  0  0  0  0  0  0  0  0  0
    1.7328   -0.7906   -4.3131 H   0  0  0  0  0  0  0  0  0  0  0  0
    0.8273   -1.5351    6.5352 H   0  0  0  0  0  0  0  0  0  0  0  0
    2.1261   -0.3496    6.6754 H   0  0  0  0  0  0  0  0  0  0  0  0
    0.2934    0.8303    7.4740 H   0  0  0  0  0  0  0  0  0  0  0  0
   -0.5952    0.5725    5.9915 H   0  0  0  0  0  0  0  0  0  0  0  0
  1  3  2  0  0  0  0
  1  5  1  0  0  0  0
  2  4  1  0  0  0  0
  2  5  2  0  0  0  0
  3  6  1  0  0  0  0
  4  6  2  0  0  0  0
  5 12  1  0  0  0  0
  6 13  1  0  0  0  0
  7  9  1  0  0  0  0
  7 13  1  0  0  0  0
  8 10  1  0  0  0  0
  8 13  1  0  0  0  0
  9 14  1  0  0  0  0
 10 14  1  0  0  0  0
 11 14  1  0  0  0  0
 12 15  1  0  0  0  0
  1 16  1  0  0  0  0
  2 17  1  0  0  0  0
  3 18  1  0  0  0  0
  4 19  1  0  0  0  0
  7 20  1  0  0  0  0
  7 21  1  0  0  0  0
  8 22  1  0  0  0  0
  8 23  1  0  0  0  0
  9 24  1  0  0  0  0
  9 25  1  0  0  0  0
 10 26  1  0  0  0  0
 10 27  1  0  0  0  0
 11 28  1  0  0  0  0
 11 29  1  0  0  0  0
 11 30  1  0  0  0  0
 12 31  1  0  0  0  0
 12 32  1  0  0  0  0
 15 33  1  0  0  0  0
 15 34  1  0  0  0  0
M  END
$$$$
frag.vs.347
  -OEChem-01121112263D

 30 31  0     0  0  0  0  0  0999 V2000
    3.4063   -2.0510    1.5909 C   0  0  0  0  0  0  0  0  0  0  0  0
    2.0570   -1.9753    3.5936 C   0  0  0  0  0  0  0  0  0  0  0  0
    2.2494   -2.0651    0.8119 C   0  0  0  0  0  0  0  0  0  0  0  0
    0.9000   -1.9894    2.8145 C   0  0  0  0  0  0  0  0  0  0  0  0
    3.3101   -2.0061    2.9818 C   0  0  0  0  0  0  0  0  0  0  0  0
    0.9962   -2.0343    1.4237 C   0  0  0  0  0  0  0  0  0  0  0  0
   -1.1121   -3.1541    0.8266 C   0  0  0  0  0  0  0  0  0  0  0  0
   -0.1495   -1.4532   -0.6987 C   0  0  0  0  0  0  0  0  0  0  0  0
   -2.4861   -2.7475    0.3063 C   0  0  0  0  0  0  0  0  0  0  0  0
   -1.5750   -1.1377   -1.1380 C   0  0  0  0  0  0  0  0  0  0  0  0
    4.5465   -1.9914    3.8155 C   0  0  0  0  0  0  0  0  0  0  0  0
   -0.1641   -2.0466    0.6428 N   0  0  0  0  0  0  0  0  0  0  0  0
    5.1758   -3.2858    3.8851 N   0  0  0  0  0  0  0  0  0  0  0  0
   -2.3956   -2.3018   -1.0467 O   0  0  0  0  0  0  0  0  0  0  0  0
    4.3784   -2.0762    1.1060 H   0  0  0  0  0  0  0  0  0  0  0  0
    1.9722   -1.9420    4.6764 H   0  0  0  0  0  0  0  0  0  0  0  0
    2.3356   -2.1016   -0.2710 H   0  0  0  0  0  0  0  0  0  0  0  0
   -0.0713   -1.9659    3.3019 H   0  0  0  0  0  0  0  0  0  0  0  0
   -1.1886   -3.4284    1.8853 H   0  0  0  0  0  0  0  0  0  0  0  0
   -0.7530   -4.0289    0.2691 H   0  0  0  0  0  0  0  0  0  0  0  0
    0.3010   -2.1654   -1.4019 H   0  0  0  0  0  0  0  0  0  0  0  0
    0.4478   -0.5339   -0.7108 H   0  0  0  0  0  0  0  0  0  0  0  0
   -3.1639   -3.6066    0.3334 H   0  0  0  0  0  0  0  0  0  0  0  0
   -2.9299   -1.9562    0.9226 H   0  0  0  0  0  0  0  0  0  0  0  0
   -2.0115   -0.3366   -0.5293 H   0  0  0  0  0  0  0  0  0  0  0  0
   -1.5797   -0.8020   -2.1799 H   0  0  0  0  0  0  0  0  0  0  0  0
    5.2870   -1.2858    3.4135 H   0  0  0  0  0  0  0  0  0  0  0  0
    4.3340   -1.6750    4.8460 H   0  0  0  0  0  0  0  0  0  0  0  0
    5.7484   -3.5084    4.6820 H   0  0  0  0  0  0  0  0  0  0  0  0
    5.2032   -3.8605    3.0595 H   0  0  0  0  0  0  0  0  0  0  0  0
  1  3  1  0  0  0  0
  1  5  2  0  0  0  0
  2  4  2  0  0  0  0
  2  5  1  0  0  0  0
  3  6  2  0  0  0  0
  4  6  1  0  0  0  0
  5 11  1  0  0  0  0
  6 12  1  0  0  0  0
  7  9  1  0  0  0  0
  7 12  1  0  0  0  0
  8 10  1  0  0  0  0
  8 12  1  0  0  0  0
  9 14  1  0  0  0  0
 10 14  1  0  0  0  0
 11 13  1  0  0  0  0
  1 15  1  0  0  0  0
  2 16  1  0  0  0  0
  3 17  1  0  0  0  0
  4 18  1  0  0  0  0
  7 19  1  0  0  0  0
  7 20  1  0  0  0  0
  8 21  1  0  0  0  0
  8 22  1  0  0  0  0
  9 23  1  0  0  0  0
  9 24  1  0  0  0  0
 10 25  1  0  0  0  0
 10 26  1  0  0  0  0
 11 27  1  0  0  0  0
 11 28  1  0  0  0  0
 13 29  1  0  0  0  0
 13 30  1  0  0  0  0
M  END
$$$$
frag.vs.348
  -OEChem-01121112263D

 29 30  0     0  0  0  0  0  0999 V2000
    3.4063   -2.0510    1.5909 C   0  0  0  0  0  0  0  0  0  0  0  0
    2.0570   -1.9753    3.5936 C   0  0  0  0  0  0  0  0  0  0  0  0
    2.2494   -2.0651    0.8119 C   0  0  0  0  0  0  0  0  0  0  0  0
    0.9000   -1.9894    2.8145 C   0  0  0  0  0  0  0  0  0  0  0  0
    3.3101   -2.0061    2.9818 C   0  0  0  0  0  0  0  0  0  0  0  0
    0.9962   -2.0343    1.4237 C   0  0  0  0  0  0  0  0  0  0  0  0
   -1.1121   -3.1541    0.8266 C   0  0  0  0  0  0  0  0  0  0  0  0
   -0.1495   -1.4532   -0.6987 C   0  0  0  0  0  0  0  0  0  0  0  0
   -2.4861   -2.7475    0.3063 C   0  0  0  0  0  0  0  0  0  0  0  0
   -1.5750   -1.1377   -1.1380 C   0  0  0  0  0  0  0  0  0  0  0  0
    4.5465   -1.9914    3.8155 C   0  0  0  0  0  0  0  0  0  0  0  0
   -0.1641   -2.0466    0.6428 N   0  0  0  0  0  0  0  0  0  0  0  0
   -2.3956   -2.3018   -1.0467 O   0  0  0  0  0  0  0  0  0  0  0  0
    5.1188   -3.2934    3.8349 O   0  0  0  0  0  0  0  0  0  0  0  0
    4.3784   -2.0762    1.1060 H   0  0  0  0  0  0  0  0  0  0  0  0
    1.9722   -1.9420    4.6764 H   0  0  0  0  0  0  0  0  0  0  0  0
    2.3356   -2.1016   -0.2710 H   0  0  0  0  0  0  0  0  0  0  0  0
   -0.0713   -1.9659    3.3019 H   0  0  0  0  0  0  0  0  0  0  0  0
   -1.1886   -3.4284    1.8853 H   0  0  0  0  0  0  0  0  0  0  0  0
   -0.7530   -4.0289    0.2691 H   0  0  0  0  0  0  0  0  0  0  0  0
    0.3010   -2.1654   -1.4019 H   0  0  0  0  0  0  0  0  0  0  0  0
    0.4478   -0.5339   -0.7108 H   0  0  0  0  0  0  0  0  0  0  0  0
   -3.1639   -3.6066    0.3334 H   0  0  0  0  0  0  0  0  0  0  0  0
   -2.9299   -1.9562    0.9226 H   0  0  0  0  0  0  0  0  0  0  0  0
   -2.0115   -0.3366   -0.5293 H   0  0  0  0  0  0  0  0  0  0  0  0
   -1.5797   -0.8020   -2.1799 H   0  0  0  0  0  0  0  0  0  0  0  0
    5.2901   -1.2873    3.4176 H   0  0  0  0  0  0  0  0  0  0  0  0
    4.3255   -1.6876    4.8479 H   0  0  0  0  0  0  0  0  0  0  0  0
    5.9164   -3.2395    4.3853 H   0  0  0  0  0  0  0  0  0  0  0  0
  1  3  1  0  0  0  0
  1  5  2  0  0  0  0
  2  4  2  0  0  0  0
  2  5  1  0  0  0  0
  3  6  2  0  0  0  0
  4  6  1  0  0  0  0
  5 11  1  0  0  0  0
  6 12  1  0  0  0  0
  7  9  1  0  0  0  0
  7 12  1  0  0  0  0
  8 10  1  0  0  0  0
  8 12  1  0  0  0  0
  9 13  1  0  0  0  0
 10 13  1  0  0  0  0
 11 14  1  0  0  0  0
  1 15  1  0  0  0  0
  2 16  1  0  0  0  0
  3 17  1  0  0  0  0
  4 18  1  0  0  0  0
  7 19  1  0  0  0  0
  7 20  1  0  0  0  0
  8 21  1  0  0  0  0
  8 22  1  0  0  0  0
  9 23  1  0  0  0  0
  9 24  1  0  0  0  0
 10 25  1  0  0  0  0
 10 26  1  0  0  0  0
 11 27  1  0  0  0  0
 11 28  1  0  0  0  0
 14 29  1  0  0  0  0
M  END
$$$$
frag.vs.349
  -OEChem-01121112263D

 22 23  0     0  0  0  0  0  0999 V2000
    5.3267   -2.8844   -1.6957 C   0  0  0  0  0  0  0  0  0  0  0  0
    5.9091   -3.2451   -0.4556 C   0  0  0  0  0  0  0  0  0  0  0  0
    1.8851   -1.0363   -0.1124 C   0  0  0  0  0  0  0  0  0  0  0  0
    2.8783   -1.6520    2.0022 C   0  0  0  0  0  0  0  0  0  0  0  0
    0.8066   -0.4630    0.5610 C   0  0  0  0  0  0  0  0  0  0  0  0
    1.7997   -1.0786    2.6757 C   0  0  0  0  0  0  0  0  0  0  0  0
    4.1413   -2.2389   -1.4211 C   0  0  0  0  0  0  0  0  0  0  0  0
    5.0617   -2.8093    0.5391 C   0  0  0  0  0  0  0  0  0  0  0  0
    2.9210   -1.6309    0.6081 C   0  0  0  0  0  0  0  0  0  0  0  0
    0.7638   -0.4841    1.9551 C   0  0  0  0  0  0  0  0  0  0  0  0
    3.9903   -2.1993   -0.0596 N   0  0  0  0  0  0  0  0  0  0  0  0
   -0.3267    0.0955    2.6360 N   0  0  0  0  0  0  0  0  0  0  0  0
    5.7268   -3.0743   -2.6817 H   0  0  0  0  0  0  0  0  0  0  0  0
    6.8438   -3.7664   -0.3029 H   0  0  0  0  0  0  0  0  0  0  0  0
    1.9058   -1.0127   -1.1993 H   0  0  0  0  0  0  0  0  0  0  0  0
    3.6789   -2.1122    2.5763 H   0  0  0  0  0  0  0  0  0  0  0  0
    0.0047   -0.0022   -0.0102 H   0  0  0  0  0  0  0  0  0  0  0  0
    1.7764   -1.1008    3.7622 H   0  0  0  0  0  0  0  0  0  0  0  0
    3.3995   -1.8113   -2.0834 H   0  0  0  0  0  0  0  0  0  0  0  0
    5.1381   -2.8858    1.6160 H   0  0  0  0  0  0  0  0  0  0  0  0
   -1.0393    0.5599    2.1102 H   0  0  0  0  0  0  0  0  0  0  0  0
   -0.3224    0.1155    3.6358 H   0  0  0  0  0  0  0  0  0  0  0  0
  1  2  1  0  0  0  0
  1  7  2  0  0  0  0
  2  8  2  0  0  0  0
  3  5  2  0  0  0  0
  3  9  1  0  0  0  0
  4  6  1  0  0  0  0
  4  9  2  0  0  0  0
  5 10  1  0  0  0  0
  6 10  2  0  0  0  0
  7 11  1  0  0  0  0
  8 11  1  0  0  0  0
  9 11  1  0  0  0  0
 10 12  1  0  0  0  0
  1 13  1  0  0  0  0
  2 14  1  0  0  0  0
  3 15  1  0  0  0  0
  4 16  1  0  0  0  0
  5 17  1  0  0  0  0
  6 18  1  0  0  0  0
  7 19  1  0  0  0  0
  8 20  1  0  0  0  0
 12 21  1  0  0  0  0
 12 22  1  0  0  0  0
M  END
$$$$
frag.vs.350
  -OEChem-01121112263D

 29 30  0     0  0  0  0  0  0999 V2000
    2.0472   -2.4593   -5.2540 C   0  0  0  0  0  0  0  0  0  0  0  0
    4.0003   -1.4165   -4.2872 C   0  0  0  0  0  0  0  0  0  0  0  0
    2.8205   -2.9201   -6.3194 C   0  0  0  0  0  0  0  0  0  0  0  0
    4.7737   -1.8773   -5.3527 C   0  0  0  0  0  0  0  0  0  0  0  0
    2.6371   -1.7074   -4.2379 C   0  0  0  0  0  0  0  0  0  0  0  0
    4.1838   -2.6291   -6.3688 C   0  0  0  0  0  0  0  0  0  0  0  0
    0.1891   -0.2002   -1.0604 C   0  0  0  0  0  0  0  0  0  0  0  0
    0.3405   -1.6994   -1.2857 C   0  0  0  0  0  0  0  0  0  0  0  0
    1.4503    0.5288   -1.5083 C   0  0  0  0  0  0  0  0  0  0  0  0
    0.6905   -2.0183   -2.7385 C   0  0  0  0  0  0  0  0  0  0  0  0
    1.7930    0.2099   -2.9618 C   0  0  0  0  0  0  0  0  0  0  0  0
    1.8600   -1.2437   -3.1694 N   0  0  0  0  0  0  0  0  0  0  0  0
    4.9661   -3.0949   -7.4456 N   0  0  0  0  0  0  0  0  0  0  0  0
    0.9859   -2.6929   -5.2249 H   0  0  0  0  0  0  0  0  0  0  0  0
    4.4704   -0.8321   -3.5003 H   0  0  0  0  0  0  0  0  0  0  0  0
    2.3505   -3.5053   -7.1056 H   0  0  0  0  0  0  0  0  0  0  0  0
    5.8353   -1.6454   -5.3811 H   0  0  0  0  0  0  0  0  0  0  0  0
   -0.6759    0.1739   -1.6212 H   0  0  0  0  0  0  0  0  0  0  0  0
   -0.0005    0.0003   -0.0001 H   0  0  0  0  0  0  0  0  0  0  0  0
    1.1311   -2.0842   -0.6290 H   0  0  0  0  0  0  0  0  0  0  0  0
   -0.5859   -2.2139   -1.0072 H   0  0  0  0  0  0  0  0  0  0  0  0
    1.3181    1.6098   -1.3884 H   0  0  0  0  0  0  0  0  0  0  0  0
    2.2871    0.2328   -0.8630 H   0  0  0  0  0  0  0  0  0  0  0  0
    0.8932   -3.0932   -2.8238 H   0  0  0  0  0  0  0  0  0  0  0  0
   -0.1660   -1.7886   -3.3855 H   0  0  0  0  0  0  0  0  0  0  0  0
    1.0373    0.6467   -3.6275 H   0  0  0  0  0  0  0  0  0  0  0  0
    2.7575    0.6728   -3.2056 H   0  0  0  0  0  0  0  0  0  0  0  0
    4.5419   -3.6724   -8.1432 H   0  0  0  0  0  0  0  0  0  0  0  0
    5.9507   -2.9196   -7.4450 H   0  0  0  0  0  0  0  0  0  0  0  0
  1  3  1  0  0  0  0
  1  5  2  0  0  0  0
  2  4  2  0  0  0  0
  2  5  1  0  0  0  0
  3  6  2  0  0  0  0
  4  6  1  0  0  0  0
  5 12  1  0  0  0  0
  6 13  1  0  0  0  0
  7  8  1  0  0  0  0
  7  9  1  0  0  0  0
  8 10  1  0  0  0  0
  9 11  1  0  0  0  0
 10 12  1  0  0  0  0
 11 12  1  0  0  0  0
  1 14  1  0  0  0  0
  2 15  1  0  0  0  0
  3 16  1  0  0  0  0
  4 17  1  0  0  0  0
  7 18  1  0  0  0  0
  7 19  1  0  0  0  0
  8 20  1  0  0  0  0
  8 21  1  0  0  0  0
  9 22  1  0  0  0  0
  9 23  1  0  0  0  0
 10 24  1  0  0  0  0
 10 25  1  0  0  0  0
 11 26  1  0  0  0  0
 11 27  1  0  0  0  0
 13 28  1  0  0  0  0
 13 29  1  0  0  0  0
M  END
$$$$
frag.vs.351
  -OEChem-01121112263D

 31 32  0     0  0  0  0  0  0999 V2000
    0.5845   -1.2355    2.4779 C   0  0  0  0  0  0  0  0  0  0  0  0
    2.7095   -0.1128    2.7238 C   0  0  0  0  0  0  0  0  0  0  0  0
    0.4031   -1.1951    3.8603 C   0  0  0  0  0  0  0  0  0  0  0  0
    2.5282   -0.0723    4.1063 C   0  0  0  0  0  0  0  0  0  0  0  0
    1.7377   -0.6944    1.9097 C   0  0  0  0  0  0  0  0  0  0  0  0
    1.3749   -0.6134    4.6745 C   0  0  0  0  0  0  0  0  0  0  0  0
    0.7537   -0.7086   -0.3650 C   0  0  0  0  0  0  0  0  0  0  0  0
    3.0973   -1.4436    0.0030 C   0  0  0  0  0  0  0  0  0  0  0  0
    1.1590   -0.2571   -1.7703 C   0  0  0  0  0  0  0  0  0  0  0  0
    3.4272   -0.9673   -1.4135 C   0  0  0  0  0  0  0  0  0  0  0  0
    2.5985   -0.6737   -3.6556 C   0  0  0  0  0  0  0  0  0  0  0  0
    1.9200   -0.7367    0.5229 N   0  0  0  0  0  0  0  0  0  0  0  0
    2.2568   -1.0796   -2.2928 N   0  0  0  0  0  0  0  0  0  0  0  0
    1.1919   -0.5721    6.0722 N   0  0  0  0  0  0  0  0  0  0  0  0
   -0.1799   -1.6902    1.8528 H   0  0  0  0  0  0  0  0  0  0  0  0
    3.6116    0.3127    2.2914 H   0  0  0  0  0  0  0  0  0  0  0  0
   -0.4995   -1.6196    4.2924 H   0  0  0  0  0  0  0  0  0  0  0  0
    3.2913    0.3839    4.7316 H   0  0  0  0  0  0  0  0  0  0  0  0
   -0.0020   -0.0153    0.0249 H   0  0  0  0  0  0  0  0  0  0  0  0
    0.2971   -1.7063   -0.4116 H   0  0  0  0  0  0  0  0  0  0  0  0
    2.9088   -2.5254   -0.0007 H   0  0  0  0  0  0  0  0  0  0  0  0
    3.9646   -1.2596    0.6493 H   0  0  0  0  0  0  0  0  0  0  0  0
    0.2822   -0.3423   -2.4238 H   0  0  0  0  0  0  0  0  0  0  0  0
    1.4461    0.8030   -1.7464 H   0  0  0  0  0  0  0  0  0  0  0  0
    3.7869    0.0699   -1.3772 H   0  0  0  0  0  0  0  0  0  0  0  0
    4.2479   -1.5836   -1.8002 H   0  0  0  0  0  0  0  0  0  0  0  0
    3.4162   -1.2904   -4.0375 H   0  0  0  0  0  0  0  0  0  0  0  0
    2.9111    0.3739   -3.6708 H   0  0  0  0  0  0  0  0  0  0  0  0
    1.7328   -0.7906   -4.3131 H   0  0  0  0  0  0  0  0  0  0  0  0
    0.3401   -0.9206    6.4634 H   0  0  0  0  0  0  0  0  0  0  0  0
    1.8736   -0.1105    6.6400 H   0  0  0  0  0  0  0  0  0  0  0  0
  1  3  2  0  0  0  0
  1  5  1  0  0  0  0
  2  4  1  0  0  0  0
  2  5  2  0  0  0  0
  3  6  1  0  0  0  0
  4  6  2  0  0  0  0
  5 12  1  0  0  0  0
  6 14  1  0  0  0  0
  7  9  1  0  0  0  0
  7 12  1  0  0  0  0
  8 10  1  0  0  0  0
  8 12  1  0  0  0  0
  9 13  1  0  0  0  0
 10 13  1  0  0  0  0
 11 13  1  0  0  0  0
  1 15  1  0  0  0  0
  2 16  1  0  0  0  0
  3 17  1  0  0  0  0
  4 18  1  0  0  0  0
  7 19  1  0  0  0  0
  7 20  1  0  0  0  0
  8 21  1  0  0  0  0
  8 22  1  0  0  0  0
  9 23  1  0  0  0  0
  9 24  1  0  0  0  0
 10 25  1  0  0  0  0
 10 26  1  0  0  0  0
 11 27  1  0  0  0  0
 11 28  1  0  0  0  0
 11 29  1  0  0  0  0
 14 30  1  0  0  0  0
 14 31  1  0  0  0  0
M  END
$$$$
frag.vs.352
  -OEChem-01121112263D

 27 28  0     0  0  0  0  0  0999 V2000
    2.1544   -1.4244    0.9416 C   0  0  0  0  0  0  0  0  0  0  0  0
    0.9951   -2.6304    2.6848 C   0  0  0  0  0  0  0  0  0  0  0  0
    3.3113   -1.4105    1.7206 C   0  0  0  0  0  0  0  0  0  0  0  0
    2.1521   -2.6166    3.4638 C   0  0  0  0  0  0  0  0  0  0  0  0
    0.9962   -2.0343    1.4237 C   0  0  0  0  0  0  0  0  0  0  0  0
    3.3102   -2.0066    2.9817 C   0  0  0  0  0  0  0  0  0  0  0  0
   -0.7487   -0.7573    0.2490 C   0  0  0  0  0  0  0  0  0  0  0  0
   -1.1193   -3.1528    0.7691 C   0  0  0  0  0  0  0  0  0  0  0  0
   -1.6486   -0.9498   -0.9663 C   0  0  0  0  0  0  0  0  0  0  0  0
   -2.0000   -3.2173   -0.4738 C   0  0  0  0  0  0  0  0  0  0  0  0
   -0.1641   -2.0466    0.6428 N   0  0  0  0  0  0  0  0  0  0  0  0
    4.4796   -1.9929    3.7696 N   0  0  0  0  0  0  0  0  0  0  0  0
   -2.6269   -1.9569   -0.7084 O   0  0  0  0  0  0  0  0  0  0  0  0
    2.1668   -0.9579   -0.0402 H   0  0  0  0  0  0  0  0  0  0  0  0
    0.0983   -3.1093    3.0698 H   0  0  0  0  0  0  0  0  0  0  0  0
    4.2082   -0.9325    1.3349 H   0  0  0  0  0  0  0  0  0  0  0  0
    2.1406   -3.0845    4.4448 H   0  0  0  0  0  0  0  0  0  0  0  0
    0.0372   -0.0311    0.0104 H   0  0  0  0  0  0  0  0  0  0  0  0
   -1.3406   -0.3624    1.0847 H   0  0  0  0  0  0  0  0  0  0  0  0
   -1.7468   -2.9866    1.6541 H   0  0  0  0  0  0  0  0  0  0  0  0
   -0.5946   -4.1073    0.8942 H   0  0  0  0  0  0  0  0  0  0  0  0
   -2.1762   -0.0173   -1.1906 H   0  0  0  0  0  0  0  0  0  0  0  0
   -1.0681   -1.2238   -1.8556 H   0  0  0  0  0  0  0  0  0  0  0  0
   -1.4198   -3.5051   -1.3589 H   0  0  0  0  0  0  0  0  0  0  0  0
   -2.7870   -3.9655   -0.3361 H   0  0  0  0  0  0  0  0  0  0  0  0
    5.3165   -1.5945    3.3941 H   0  0  0  0  0  0  0  0  0  0  0  0
    4.4793   -2.4646    4.6514 H   0  0  0  0  0  0  0  0  0  0  0  0
  1  3  1  0  0  0  0
  1  5  2  0  0  0  0
  2  4  2  0  0  0  0
  2  5  1  0  0  0  0
  3  6  2  0  0  0  0
  4  6  1  0  0  0  0
  5 11  1  0  0  0  0
  6 12  1  0  0  0  0
  7  9  1  0  0  0  0
  7 11  1  0  0  0  0
  8 10  1  0  0  0  0
  8 11  1  0  0  0  0
  9 13  1  0  0  0  0
 10 13  1  0  0  0  0
  1 14  1  0  0  0  0
  2 15  1  0  0  0  0
  3 16  1  0  0  0  0
  4 17  1  0  0  0  0
  7 18  1  0  0  0  0
  7 19  1  0  0  0  0
  8 20  1  0  0  0  0
  8 21  1  0  0  0  0
  9 22  1  0  0  0  0
  9 23  1  0  0  0  0
 10 24  1  0  0  0  0
 10 25  1  0  0  0  0
 12 26  1  0  0  0  0
 12 27  1  0  0  0  0
M  END
$$$$
frag.vs.353
  -OEChem-01121112263D

 34 35  0     0  0  0  0  0  0999 V2000
   -1.8022   -0.7245    0.9247 C   0  0  0  0  0  0  0  0  0  0  0  0
   -0.7671    0.1975    0.7446 C   0  0  0  0  0  0  0  0  0  0  0  0
   -1.6773    1.6439    2.4698 C   0  0  0  0  0  0  0  0  0  0  0  0
   -4.5471   -0.4724    3.2738 C   0  0  0  0  0  0  0  0  0  0  0  0
   -2.7304    0.7292    2.6692 C   0  0  0  0  0  0  0  0  0  0  0  0
   -3.8586    0.6897    3.5356 C   0  0  0  0  0  0  0  0  0  0  0  0
   -2.7685   -0.4315    1.8936 C   0  0  0  0  0  0  0  0  0  0  0  0
   -0.7036    1.3640    1.5041 C   0  0  0  0  0  0  0  0  0  0  0  0
   -6.2405    4.8726    4.4809 C   0  0  0  0  0  0  0  0  0  0  0  0
   -4.0191    4.6990    5.3795 C   0  0  0  0  0  0  0  0  0  0  0  0
    0.3272    3.4183    2.1147 C   0  0  0  0  0  0  0  0  0  0  0  0
   -4.2324    1.7063    4.5394 C   0  0  0  0  0  0  0  0  0  0  0  0
   -4.8718    2.9730    3.9419 C   0  0  0  0  0  0  0  0  0  0  0  0
   -3.8818   -1.1421    2.2822 N   0  0  0  0  0  0  0  0  0  0  0  0
   -5.2050    3.9404    4.9529 N   0  0  0  0  0  0  0  0  0  0  0  0
    0.3184    2.2438    1.3063 O   0  0  0  0  0  0  0  0  0  0  0  0
   -1.8509   -1.6321    0.3324 H   0  0  0  0  0  0  0  0  0  0  0  0
   -0.0035   -0.0052   -0.0029 H   0  0  0  0  0  0  0  0  0  0  0  0
   -1.6190    2.5560    3.0577 H   0  0  0  0  0  0  0  0  0  0  0  0
   -5.4502   -0.8835    3.7031 H   0  0  0  0  0  0  0  0  0  0  0  0
   -7.1270    4.3188    4.1611 H   0  0  0  0  0  0  0  0  0  0  0  0
   -5.8665    5.4566    3.6355 H   0  0  0  0  0  0  0  0  0  0  0  0
   -6.5248    5.5593    5.2827 H   0  0  0  0  0  0  0  0  0  0  0  0
   -3.2427    4.0153    5.7325 H   0  0  0  0  0  0  0  0  0  0  0  0
   -4.2803    5.3839    6.1909 H   0  0  0  0  0  0  0  0  0  0  0  0
   -3.6219    5.2812    4.5437 H   0  0  0  0  0  0  0  0  0  0  0  0
    1.1931    4.0329    1.8564 H   0  0  0  0  0  0  0  0  0  0  0  0
    0.3695    3.1354    3.1695 H   0  0  0  0  0  0  0  0  0  0  0  0
   -0.5879    3.9853    1.9279 H   0  0  0  0  0  0  0  0  0  0  0  0
   -3.3391    2.0172    5.1165 H   0  0  0  0  0  0  0  0  0  0  0  0
   -4.9218    1.2874    5.3002 H   0  0  0  0  0  0  0  0  0  0  0  0
   -4.1871    3.4673    3.2455 H   0  0  0  0  0  0  0  0  0  0  0  0
   -5.7923    2.7301    3.4010 H   0  0  0  0  0  0  0  0  0  0  0  0
   -4.1663   -2.0294    1.8909 H   0  0  0  0  0  0  0  0  0  0  0  0
  1  2  1  0  0  0  0
  1  7  2  0  0  0  0
  2  8  2  0  0  0  0
  3  5  2  0  0  0  0
  3  8  1  0  0  0  0
  4  6  2  0  0  0  0
  4 14  1  0  0  0  0
  5  6  1  0  0  0  0
  5  7  1  0  0  0  0
  6 12  1  0  0  0  0
  7 14  1  0  0  0  0
  8 16  1  0  0  0  0
  9 15  1  0  0  0  0
 10 15  1  0  0  0  0
 11 16  1  0  0  0  0
 12 13  1  0  0  0  0
 13 15  1  0  0  0  0
  1 17  1  0  0  0  0
  2 18  1  0  0  0  0
  3 19  1  0  0  0  0
  4 20  1  0  0  0  0
  9 21  1  0  0  0  0
  9 22  1  0  0  0  0
  9 23  1  0  0  0  0
 10 24  1  0  0  0  0
 10 25  1  0  0  0  0
 10 26  1  0  0  0  0
 11 27  1  0  0  0  0
 11 28  1  0  0  0  0
 11 29  1  0  0  0  0
 12 30  1  0  0  0  0
 12 31  1  0  0  0  0
 13 32  1  0  0  0  0
 13 33  1  0  0  0  0
 14 34  1  0  0  0  0
M  END
$$$$
frag.vs.354_0
  -OEChem-01121112263D

 33 34  0     1  0  0  0  0  0999 V2000
   -4.7806   -0.0521    3.6549 C   0  0  0  0  0  0  0  0  0  0  0  0
   -4.1404    1.1133    3.2336 C   0  0  0  0  0  0  0  0  0  0  0  0
   -4.0700   -1.2501    3.7300 C   0  0  0  0  0  0  0  0  0  0  0  0
   -2.7896    1.0808    2.8872 C   0  0  0  0  0  0  0  0  0  0  0  0
   -2.7192   -1.2826    3.3836 C   0  0  0  0  0  0  0  0  0  0  0  0
   -2.0790   -0.1172    2.9622 C   0  0  0  0  0  0  0  0  0  0  0  0
    0.9302   -0.9382    0.9214 C   0  0  0  0  0  0  0  0  0  0  0  0
   -0.6912    0.7482    0.3515 C   0  0  0  0  0  0  0  0  0  0  0  0
    1.1114   -1.2281   -0.5652 C   0  0  0  0  0  0  0  0  0  0  0  0
   -0.4781    0.4177   -1.1306 C   0  0  1  0  0  0  0  0  0  0  0  0
   -0.6251   -0.1530    2.5893 C   0  0  0  0  0  0  0  0  0  0  0  0
   -0.6747    1.6515   -2.0009 C   0  0  0  0  0  0  0  0  0  0  0  0
   -0.4314   -0.4454    1.1704 N   0  0  2  0  0  0  0  0  0  0  0  0
   -2.0010    2.1507   -1.8452 N   0  0  0  0  0  0  0  0  0  0  0  0
    0.8588   -0.0529   -1.3359 O   0  0  0  0  0  0  0  0  0  0  0  0
   -5.8320   -0.0263    3.9259 H   0  0  0  0  0  0  0  0  0  0  0  0
   -4.6932    2.0464    3.1761 H   0  0  0  0  0  0  0  0  0  0  0  0
   -4.5678   -2.1574    4.0590 H   0  0  0  0  0  0  0  0  0  0  0  0
   -2.2991    1.9937    2.5598 H   0  0  0  0  0  0  0  0  0  0  0  0
   -2.1736   -2.2205    3.4451 H   0  0  0  0  0  0  0  0  0  0  0  0
    1.1113   -1.8586    1.4885 H   0  0  0  0  0  0  0  0  0  0  0  0
    1.6695   -0.1916    1.2403 H   0  0  0  0  0  0  0  0  0  0  0  0
   -0.0211    1.5645    0.6532 H   0  0  0  0  0  0  0  0  0  0  0  0
   -1.7236    1.0865    0.5008 H   0  0  0  0  0  0  0  0  0  0  0  0
    2.1429   -1.5384   -0.7609 H   0  0  0  0  0  0  0  0  0  0  0  0
    0.4522   -2.0368   -0.9037 H   0  0  0  0  0  0  0  0  0  0  0  0
   -1.1816   -0.3588   -1.4585 H   0  0  0  0  0  0  0  0  0  0  0  0
   -0.1477    0.8095    2.8036 H   0  0  0  0  0  0  0  0  0  0  0  0
   -0.0905   -0.9163    3.1645 H   0  0  0  0  0  0  0  0  0  0  0  0
   -0.5163    1.3794   -3.0376 H   0  0  0  0  0  0  0  0  0  0  0  0
    0.0306    2.4163   -1.6993 H   0  0  0  0  0  0  0  0  0  0  0  0
   -2.7714    1.5036   -1.7215 H   0  0  0  0  0  0  0  0  0  0  0  0
   -2.2023    3.1210   -2.0591 H   0  0  0  0  0  0  0  0  0  0  0  0
  1  2  1  0  0  0  0
  1  3  2  0  0  0  0
  2  4  2  0  0  0  0
  3  5  1  0  0  0  0
  4  6  1  0  0  0  0
  5  6  2  0  0  0  0
  6 11  1  0  0  0  0
  7  9  1  0  0  0  0
  7 13  1  0  0  0  0
  8 10  1  0  0  0  0
  8 13  1  0  0  0  0
  9 15  1  0  0  0  0
 10 12  1  0  0  0  0
 10 15  1  0  0  0  0
 11 13  1  0  0  0  0
 12 14  1  0  0  0  0
  1 16  1  0  0  0  0
  2 17  1  0  0  0  0
  3 18  1  0  0  0  0
  4 19  1  0  0  0  0
  5 20  1  0  0  0  0
  7 21  1  0  0  0  0
  7 22  1  0  0  0  0
  8 23  1  0  0  0  0
  8 24  1  0  0  0  0
  9 25  1  0  0  0  0
  9 26  1  0  0  0  0
 10 27  1  0  0  0  0
 11 28  1  0  0  0  0
 11 29  1  0  0  0  0
 12 30  1  0  0  0  0
 12 31  1  0  0  0  0
 14 32  1  0  0  0  0
 14 33  1  0  0  0  0
M  END
$$$$
frag.vs.354_1
  -OEChem-01121112263D

 33 34  0     1  0  0  0  0  0999 V2000
   -4.1594   -0.8792    4.2585 C   0  0  0  0  0  0  0  0  0  0  0  0
   -4.7222   -0.3383    3.1025 C   0  0  0  0  0  0  0  0  0  0  0  0
   -2.8031   -0.6936    4.5266 C   0  0  0  0  0  0  0  0  0  0  0  0
   -3.9288    0.3880    2.2145 C   0  0  0  0  0  0  0  0  0  0  0  0
   -2.0097    0.0327    3.6385 C   0  0  0  0  0  0  0  0  0  0  0  0
   -2.5725    0.5736    2.4825 C   0  0  0  0  0  0  0  0  0  0  0  0
   -0.6984    1.2938   -0.6581 C   0  0  0  0  0  0  0  0  0  0  0  0
    0.0317   -0.2376    1.0506 C   0  0  0  0  0  0  0  0  0  0  0  0
   -0.0678    0.3827   -1.7065 C   0  0  0  0  0  0  0  0  0  0  0  0
    0.6447   -1.1241   -0.0402 C   0  0  2  0  0  0  0  0  0  0  0  0
   -1.7179    1.3551    1.5270 C   0  0  0  0  0  0  0  0  0  0  0  0
    1.8785   -1.8528    0.4748 C   0  0  0  0  0  0  0  0  0  0  0  0
   -1.1177    0.4998    0.5050 N   0  0  1  0  0  0  0  0  0  0  0  0
    2.4226   -2.6756   -0.5545 N   0  0  0  0  0  0  0  0  0  0  0  0
    1.0469   -0.3169   -1.1526 O   0  0  0  0  0  0  0  0  0  0  0  0
   -4.7776   -1.4436    4.9505 H   0  0  0  0  0  0  0  0  0  0  0  0
   -5.7785   -0.4818    2.8942 H   0  0  0  0  0  0  0  0  0  0  0  0
   -2.3648   -1.1136    5.4270 H   0  0  0  0  0  0  0  0  0  0  0  0
   -4.3759    0.8056    1.3162 H   0  0  0  0  0  0  0  0  0  0  0  0
   -0.9540    0.1721    3.8555 H   0  0  0  0  0  0  0  0  0  0  0  0
    0.0288    2.0585   -0.3546 H   0  0  0  0  0  0  0  0  0  0  0  0
   -1.5614    1.8036   -1.1018 H   0  0  0  0  0  0  0  0  0  0  0  0
   -0.2915   -0.8675    1.8880 H   0  0  0  0  0  0  0  0  0  0  0  0
    0.7855    0.4664    1.4284 H   0  0  0  0  0  0  0  0  0  0  0  0
   -0.7919   -0.3387   -2.1045 H   0  0  0  0  0  0  0  0  0  0  0  0
    0.2993    0.9806   -2.5469 H   0  0  0  0  0  0  0  0  0  0  0  0
   -0.0834   -1.8690   -0.3874 H   0  0  0  0  0  0  0  0  0  0  0  0
   -2.3106    2.1232    1.0184 H   0  0  0  0  0  0  0  0  0  0  0  0
   -0.9060    1.8669    2.0543 H   0  0  0  0  0  0  0  0  0  0  0  0
    1.5942   -2.4751    1.3149 H   0  0  0  0  0  0  0  0  0  0  0  0
    2.6213   -1.1252    0.7781 H   0  0  0  0  0  0  0  0  0  0  0  0
    1.8025   -3.1480   -1.2025 H   0  0  0  0  0  0  0  0  0  0  0  0
    3.3976   -2.9508   -0.5166 H   0  0  0  0  0  0  0  0  0  0  0  0
  1  2  1  0  0  0  0
  1  3  2  0  0  0  0
  2  4  2  0  0  0  0
  3  5  1  0  0  0  0
  4  6  1  0  0  0  0
  5  6  2  0  0  0  0
  6 11  1  0  0  0  0
  7  9  1  0  0  0  0
  7 13  1  0  0  0  0
  8 10  1  0  0  0  0
  8 13  1  0  0  0  0
  9 15  1  0  0  0  0
 10 12  1  0  0  0  0
 10 15  1  0  0  0  0
 11 13  1  0  0  0  0
 12 14  1  0  0  0  0
  1 16  1  0  0  0  0
  2 17  1  0  0  0  0
  3 18  1  0  0  0  0
  4 19  1  0  0  0  0
  5 20  1  0  0  0  0
  7 21  1  0  0  0  0
  7 22  1  0  0  0  0
  8 23  1  0  0  0  0
  8 24  1  0  0  0  0
  9 25  1  0  0  0  0
  9 26  1  0  0  0  0
 10 27  1  0  0  0  0
 11 28  1  0  0  0  0
 11 29  1  0  0  0  0
 12 30  1  0  0  0  0
 12 31  1  0  0  0  0
 14 32  1  0  0  0  0
 14 33  1  0  0  0  0
M  END
$$$$
frag.vs.355_0
  -OEChem-01121112263D

 32 33  0     1  0  0  0  0  0999 V2000
   -1.4090   -3.7038    4.8677 C   0  0  0  0  0  0  0  0  0  0  0  0
   -2.4664   -2.9875    4.3072 C   0  0  0  0  0  0  0  0  0  0  0  0
   -0.0969   -3.2658    4.6878 C   0  0  0  0  0  0  0  0  0  0  0  0
   -2.2119   -1.8332    3.5666 C   0  0  0  0  0  0  0  0  0  0  0  0
    0.1577   -2.1115    3.9472 C   0  0  0  0  0  0  0  0  0  0  0  0
   -0.8998   -1.3952    3.3866 C   0  0  0  0  0  0  0  0  0  0  0  0
    0.9302   -0.9382    0.9214 C   0  0  0  0  0  0  0  0  0  0  0  0
   -0.6912    0.7482    0.3515 C   0  0  0  0  0  0  0  0  0  0  0  0
    1.1114   -1.2281   -0.5652 C   0  0  0  0  0  0  0  0  0  0  0  0
   -0.4781    0.4177   -1.1306 C   0  0  1  0  0  0  0  0  0  0  0  0
   -0.6251   -0.1530    2.5893 C   0  0  0  0  0  0  0  0  0  0  0  0
   -0.6747    1.6515   -2.0009 C   0  0  0  0  0  0  0  0  0  0  0  0
   -0.4314   -0.4454    1.1704 N   0  0  2  0  0  0  0  0  0  0  0  0
    0.8588   -0.0529   -1.3359 O   0  0  0  0  0  0  0  0  0  0  0  0
   -0.4557    1.2919   -3.3538 O   0  0  0  0  0  0  0  0  0  0  0  0
   -1.6074   -4.6018    5.4455 H   0  0  0  0  0  0  0  0  0  0  0  0
   -3.4882   -3.3277    4.4481 H   0  0  0  0  0  0  0  0  0  0  0  0
    0.7266   -3.8227    5.1249 H   0  0  0  0  0  0  0  0  0  0  0  0
   -3.0420   -1.2815    3.1333 H   0  0  0  0  0  0  0  0  0  0  0  0
    1.1831   -1.7779    3.8121 H   0  0  0  0  0  0  0  0  0  0  0  0
    1.1113   -1.8586    1.4885 H   0  0  0  0  0  0  0  0  0  0  0  0
    1.6695   -0.1916    1.2403 H   0  0  0  0  0  0  0  0  0  0  0  0
   -0.0211    1.5645    0.6532 H   0  0  0  0  0  0  0  0  0  0  0  0
   -1.7236    1.0865    0.5008 H   0  0  0  0  0  0  0  0  0  0  0  0
    2.1429   -1.5384   -0.7609 H   0  0  0  0  0  0  0  0  0  0  0  0
    0.4522   -2.0368   -0.9037 H   0  0  0  0  0  0  0  0  0  0  0  0
   -1.1816   -0.3588   -1.4585 H   0  0  0  0  0  0  0  0  0  0  0  0
   -1.4570    0.5542    2.6775 H   0  0  0  0  0  0  0  0  0  0  0  0
    0.2742    0.3559    2.9521 H   0  0  0  0  0  0  0  0  0  0  0  0
    0.0371    2.4281   -1.7168 H   0  0  0  0  0  0  0  0  0  0  0  0
   -1.6919    2.0302   -1.8909 H   0  0  0  0  0  0  0  0  0  0  0  0
   -0.5869    2.0945   -3.8864 H   0  0  0  0  0  0  0  0  0  0  0  0
  1  2  1  0  0  0  0
  1  3  2  0  0  0  0
  2  4  2  0  0  0  0
  3  5  1  0  0  0  0
  4  6  1  0  0  0  0
  5  6  2  0  0  0  0
  6 11  1  0  0  0  0
  7  9  1  0  0  0  0
  7 13  1  0  0  0  0
  8 10  1  0  0  0  0
  8 13  1  0  0  0  0
  9 14  1  0  0  0  0
 10 12  1  0  0  0  0
 10 14  1  0  0  0  0
 11 13  1  0  0  0  0
 12 15  1  0  0  0  0
  1 16  1  0  0  0  0
  2 17  1  0  0  0  0
  3 18  1  0  0  0  0
  4 19  1  0  0  0  0
  5 20  1  0  0  0  0
  7 21  1  0  0  0  0
  7 22  1  0  0  0  0
  8 23  1  0  0  0  0
  8 24  1  0  0  0  0
  9 25  1  0  0  0  0
  9 26  1  0  0  0  0
 10 27  1  0  0  0  0
 11 28  1  0  0  0  0
 11 29  1  0  0  0  0
 12 30  1  0  0  0  0
 12 31  1  0  0  0  0
 15 32  1  0  0  0  0
M  END
$$$$
frag.vs.355_1
  -OEChem-01121112263D

 32 33  0     1  0  0  0  0  0999 V2000
   -4.1594   -0.8792    4.2585 C   0  0  0  0  0  0  0  0  0  0  0  0
   -4.7222   -0.3383    3.1025 C   0  0  0  0  0  0  0  0  0  0  0  0
   -2.8031   -0.6936    4.5266 C   0  0  0  0  0  0  0  0  0  0  0  0
   -3.9288    0.3880    2.2145 C   0  0  0  0  0  0  0  0  0  0  0  0
   -2.0097    0.0327    3.6385 C   0  0  0  0  0  0  0  0  0  0  0  0
   -2.5725    0.5736    2.4825 C   0  0  0  0  0  0  0  0  0  0  0  0
   -0.6984    1.2938   -0.6581 C   0  0  0  0  0  0  0  0  0  0  0  0
    0.0317   -0.2376    1.0506 C   0  0  0  0  0  0  0  0  0  0  0  0
   -0.0678    0.3827   -1.7065 C   0  0  0  0  0  0  0  0  0  0  0  0
    0.6447   -1.1241   -0.0402 C   0  0  2  0  0  0  0  0  0  0  0  0
   -1.7179    1.3551    1.5270 C   0  0  0  0  0  0  0  0  0  0  0  0
    1.8785   -1.8528    0.4748 C   0  0  0  0  0  0  0  0  0  0  0  0
   -1.1177    0.4998    0.5050 N   0  0  1  0  0  0  0  0  0  0  0  0
    1.0469   -0.3169   -1.1526 O   0  0  0  0  0  0  0  0  0  0  0  0
    2.3951   -2.6622   -0.5671 O   0  0  0  0  0  0  0  0  0  0  0  0
   -4.7776   -1.4436    4.9505 H   0  0  0  0  0  0  0  0  0  0  0  0
   -5.7785   -0.4818    2.8942 H   0  0  0  0  0  0  0  0  0  0  0  0
   -2.3648   -1.1136    5.4270 H   0  0  0  0  0  0  0  0  0  0  0  0
   -4.3759    0.8056    1.3162 H   0  0  0  0  0  0  0  0  0  0  0  0
   -0.9540    0.1721    3.8555 H   0  0  0  0  0  0  0  0  0  0  0  0
    0.0288    2.0585   -0.3546 H   0  0  0  0  0  0  0  0  0  0  0  0
   -1.5614    1.8036   -1.1018 H   0  0  0  0  0  0  0  0  0  0  0  0
   -0.2915   -0.8675    1.8880 H   0  0  0  0  0  0  0  0  0  0  0  0
    0.7855    0.4664    1.4284 H   0  0  0  0  0  0  0  0  0  0  0  0
   -0.7919   -0.3387   -2.1045 H   0  0  0  0  0  0  0  0  0  0  0  0
    0.2993    0.9806   -2.5469 H   0  0  0  0  0  0  0  0  0  0  0  0
   -0.0834   -1.8690   -0.3874 H   0  0  0  0  0  0  0  0  0  0  0  0
   -2.3106    2.1232    1.0184 H   0  0  0  0  0  0  0  0  0  0  0  0
   -0.9060    1.8669    2.0543 H   0  0  0  0  0  0  0  0  0  0  0  0
    1.6132   -2.4862    1.3226 H   0  0  0  0  0  0  0  0  0  0  0  0
    2.6392   -1.1329    0.7802 H   0  0  0  0  0  0  0  0  0  0  0  0
    3.1794   -3.1149   -0.2135 H   0  0  0  0  0  0  0  0  0  0  0  0
  1  2  1  0  0  0  0
  1  3  2  0  0  0  0
  2  4  2  0  0  0  0
  3  5  1  0  0  0  0
  4  6  1  0  0  0  0
  5  6  2  0  0  0  0
  6 11  1  0  0  0  0
  7  9  1  0  0  0  0
  7 13  1  0  0  0  0
  8 10  1  0  0  0  0
  8 13  1  0  0  0  0
  9 14  1  0  0  0  0
 10 12  1  0  0  0  0
 10 14  1  0  0  0  0
 11 13  1  0  0  0  0
 12 15  1  0  0  0  0
  1 16  1  0  0  0  0
  2 17  1  0  0  0  0
  3 18  1  0  0  0  0
  4 19  1  0  0  0  0
  5 20  1  0  0  0  0
  7 21  1  0  0  0  0
  7 22  1  0  0  0  0
  8 23  1  0  0  0  0
  8 24  1  0  0  0  0
  9 25  1  0  0  0  0
  9 26  1  0  0  0  0
 10 27  1  0  0  0  0
 11 28  1  0  0  0  0
 11 29  1  0  0  0  0
 12 30  1  0  0  0  0
 12 31  1  0  0  0  0
 15 32  1  0  0  0  0
M  END
$$$$
frag.vs.356
  -OEChem-01121112263D

 32 33  0     1  0  0  0  0  0999 V2000
    1.3758    3.2684   -3.3802 C   0  0  0  0  0  0  0  0  0  0  0  0
   -0.5404    3.4137   -1.9160 C   0  0  0  0  0  0  0  0  0  0  0  0
    1.3510    4.6526   -3.5502 C   0  0  0  0  0  0  0  0  0  0  0  0
   -0.5652    4.7980   -2.0859 C   0  0  0  0  0  0  0  0  0  0  0  0
    0.4301    2.6489   -2.5632 C   0  0  0  0  0  0  0  0  0  0  0  0
    0.3805    5.4174   -2.9030 C   0  0  0  0  0  0  0  0  0  0  0  0
    0.4261    0.9035    1.3749 C   0  0  0  0  0  0  0  0  0  0  0  0
    0.2632   -0.4932    1.9775 C   0  0  0  0  0  0  0  0  0  0  0  0
    0.9921    0.9393   -0.0455 C   0  0  0  0  0  0  0  0  0  0  0  0
   -1.2501   -1.1066    0.1490 C   0  0  0  0  0  0  0  0  0  0  0  0
   -0.5735   -0.6120   -1.1332 C   0  0  0  0  0  0  0  0  0  0  0  0
    0.4568    1.1591   -2.3792 C   0  0  0  0  0  0  0  0  0  0  0  0
   -0.2614   -1.5492    1.1199 N   0  0  0  0  0  0  0  0  0  0  0  0
   -0.0533    0.7593   -1.0634 N   0  0  2  0  0  0  0  0  0  0  0  0
    0.3582    6.7470   -3.0640 F   0  0  0  0  0  0  0  0  0  0  0  0
    2.1354    2.6808   -3.8892 H   0  0  0  0  0  0  0  0  0  0  0  0
   -1.2811    2.9398   -1.2772 H   0  0  0  0  0  0  0  0  0  0  0  0
    2.0875    5.1350   -4.1857 H   0  0  0  0  0  0  0  0  0  0  0  0
   -1.3209    5.3937   -1.5825 H   0  0  0  0  0  0  0  0  0  0  0  0
   -0.5330    1.4373    1.4055 H   0  0  0  0  0  0  0  0  0  0  0  0
    1.0980    1.4712    2.0318 H   0  0  0  0  0  0  0  0  0  0  0  0
    1.2363   -0.8277    2.3579 H   0  0  0  0  0  0  0  0  0  0  0  0
   -0.3827   -0.4121    2.8605 H   0  0  0  0  0  0  0  0  0  0  0  0
    1.4324    1.9370   -0.1744 H   0  0  0  0  0  0  0  0  0  0  0  0
    1.8095    0.2173   -0.1667 H   0  0  0  0  0  0  0  0  0  0  0  0
   -1.9519   -0.3727    0.5628 H   0  0  0  0  0  0  0  0  0  0  0  0
   -1.8555   -1.9830   -0.1125 H   0  0  0  0  0  0  0  0  0  0  0  0
    0.2085   -1.3150   -1.4525 H   0  0  0  0  0  0  0  0  0  0  0  0
   -1.3434   -0.6412   -1.9162 H   0  0  0  0  0  0  0  0  0  0  0  0
   -0.1544    0.6648   -3.1422 H   0  0  0  0  0  0  0  0  0  0  0  0
    1.4756    0.7693   -2.4758 H   0  0  0  0  0  0  0  0  0  0  0  0
    0.5078   -2.0185    0.6430 H   0  0  0  0  0  0  0  0  0  0  0  0
  1  3  1  0  0  0  0
  1  5  2  0  0  0  0
  2  4  2  0  0  0  0
  2  5  1  0  0  0  0
  3  6  2  0  0  0  0
  4  6  1  0  0  0  0
  5 12  1  0  0  0  0
  6 15  1  0  0  0  0
  7  8  1  0  0  0  0
  7  9  1  0  0  0  0
  8 13  1  0  0  0  0
  9 14  1  0  0  0  0
 10 11  1  0  0  0  0
 10 13  1  0  0  0  0
 11 14  1  0  0  0  0
 12 14  1  0  0  0  0
  1 16  1  0  0  0  0
  2 17  1  0  0  0  0
  3 18  1  0  0  0  0
  4 19  1  0  0  0  0
  7 20  1  0  0  0  0
  7 21  1  0  0  0  0
  8 22  1  0  0  0  0
  8 23  1  0  0  0  0
  9 24  1  0  0  0  0
  9 25  1  0  0  0  0
 10 26  1  0  0  0  0
 10 27  1  0  0  0  0
 11 28  1  0  0  0  0
 11 29  1  0  0  0  0
 12 30  1  0  0  0  0
 12 31  1  0  0  0  0
 13 32  1  0  0  0  0
M  END
$$$$
frag.vs.357_0
  -OEChem-01121112263D

 31 32  0     1  0  0  0  0  0999 V2000
    1.9754    4.4430   -3.9425 C   0  0  0  0  0  0  0  0  0  0  0  0
    1.4629    4.8764   -2.7197 C   0  0  0  0  0  0  0  0  0  0  0  0
    1.6241    3.1883   -4.4406 C   0  0  0  0  0  0  0  0  0  0  0  0
    0.5992    4.0551   -1.9950 C   0  0  0  0  0  0  0  0  0  0  0  0
    0.7604    2.3670   -3.7159 C   0  0  0  0  0  0  0  0  0  0  0  0
    0.2479    2.8004   -2.4931 C   0  0  0  0  0  0  0  0  0  0  0  0
    1.3947   -1.0171   -0.5603 C   0  0  0  0  0  0  0  0  0  0  0  0
    0.5509   -1.4618    0.6271 C   0  0  0  0  0  0  0  0  0  0  0  0
    0.5934   -0.1176   -1.5032 C   0  0  0  0  0  0  0  0  0  0  0  0
   -0.8352    0.6206    0.3109 C   0  0  0  0  0  0  0  0  0  0  0  0
   -0.0817   -0.2563    1.3152 C   0  0  1  0  0  0  0  0  0  0  0  0
   -0.6815    1.9158   -1.7135 C   0  0  0  0  0  0  0  0  0  0  0  0
    0.0411    1.0423   -0.7892 N   0  0  2  0  0  0  0  0  0  0  0  0
   -0.9816   -0.7259    2.3131 O   0  0  0  0  0  0  0  0  0  0  0  0
    2.6468    5.0832   -4.5073 H   0  0  0  0  0  0  0  0  0  0  0  0
    1.7354    5.8537   -2.3322 H   0  0  0  0  0  0  0  0  0  0  0  0
    2.0220    2.8510   -5.3931 H   0  0  0  0  0  0  0  0  0  0  0  0
    0.2049    4.4010   -1.0431 H   0  0  0  0  0  0  0  0  0  0  0  0
    0.4924    1.3910   -4.1118 H   0  0  0  0  0  0  0  0  0  0  0  0
    2.2792   -0.4768   -0.1992 H   0  0  0  0  0  0  0  0  0  0  0  0
    1.7578   -1.8955   -1.1057 H   0  0  0  0  0  0  0  0  0  0  0  0
   -0.2334   -2.1531    0.2921 H   0  0  0  0  0  0  0  0  0  0  0  0
    1.1622   -2.0255    1.3417 H   0  0  0  0  0  0  0  0  0  0  0  0
    1.2640    0.2230   -2.3016 H   0  0  0  0  0  0  0  0  0  0  0  0
   -0.2066   -0.7021   -1.9767 H   0  0  0  0  0  0  0  0  0  0  0  0
   -1.7173    0.0834   -0.0648 H   0  0  0  0  0  0  0  0  0  0  0  0
   -1.2213    1.4998    0.8426 H   0  0  0  0  0  0  0  0  0  0  0  0
    0.6981    0.3304    1.8162 H   0  0  0  0  0  0  0  0  0  0  0  0
   -1.3863    2.5166   -1.1285 H   0  0  0  0  0  0  0  0  0  0  0  0
   -1.2722    1.2805   -2.3818 H   0  0  0  0  0  0  0  0  0  0  0  0
   -0.4557   -1.2516    2.9364 H   0  0  0  0  0  0  0  0  0  0  0  0
  1  2  1  0  0  0  0
  1  3  2  0  0  0  0
  2  4  2  0  0  0  0
  3  5  1  0  0  0  0
  4  6  1  0  0  0  0
  5  6  2  0  0  0  0
  6 12  1  0  0  0  0
  7  8  1  0  0  0  0
  7  9  1  0  0  0  0
  8 11  1  0  0  0  0
  9 13  1  0  0  0  0
 10 11  1  0  0  0  0
 10 13  1  0  0  0  0
 11 14  1  0  0  0  0
 12 13  1  0  0  0  0
  1 15  1  0  0  0  0
  2 16  1  0  0  0  0
  3 17  1  0  0  0  0
  4 18  1  0  0  0  0
  5 19  1  0  0  0  0
  7 20  1  0  0  0  0
  7 21  1  0  0  0  0
  8 22  1  0  0  0  0
  8 23  1  0  0  0  0
  9 24  1  0  0  0  0
  9 25  1  0  0  0  0
 10 26  1  0  0  0  0
 10 27  1  0  0  0  0
 11 28  1  0  0  0  0
 12 29  1  0  0  0  0
 12 30  1  0  0  0  0
 14 31  1  0  0  0  0
M  END
$$$$
frag.vs.357_1
  -OEChem-01121112263D

 31 32  0     1  0  0  0  0  0999 V2000
   -1.4756   -5.0590   -2.8526 C   0  0  0  0  0  0  0  0  0  0  0  0
   -1.6525   -3.9424   -3.6696 C   0  0  0  0  0  0  0  0  0  0  0  0
   -1.5041   -4.9195   -1.4650 C   0  0  0  0  0  0  0  0  0  0  0  0
   -1.8578   -2.6862   -3.0990 C   0  0  0  0  0  0  0  0  0  0  0  0
   -1.7094   -3.6634   -0.8944 C   0  0  0  0  0  0  0  0  0  0  0  0
   -1.8862   -2.5467   -1.7114 C   0  0  0  0  0  0  0  0  0  0  0  0
    0.2233    1.7216   -0.5371 C   0  0  0  0  0  0  0  0  0  0  0  0
    1.0083    1.1847    0.6528 C   0  0  0  0  0  0  0  0  0  0  0  0
   -1.0886    0.9573   -0.7263 C   0  0  0  0  0  0  0  0  0  0  0  0
   -0.1612   -1.0270    0.3125 C   0  0  0  0  0  0  0  0  0  0  0  0
    1.1822   -0.3273    0.5381 C   0  0  2  0  0  0  0  0  0  0  0  0
   -2.1069   -1.1949   -1.0965 C   0  0  0  0  0  0  0  0  0  0  0  0
   -0.8484   -0.4860   -0.8669 N   0  0  1  0  0  0  0  0  0  0  0  0
    1.7912   -0.8284    1.7234 O   0  0  0  0  0  0  0  0  0  0  0  0
   -1.3171   -6.0373   -3.2971 H   0  0  0  0  0  0  0  0  0  0  0  0
   -1.6314   -4.0510   -4.7500 H   0  0  0  0  0  0  0  0  0  0  0  0
   -1.3675   -5.7888   -0.8286 H   0  0  0  0  0  0  0  0  0  0  0  0
   -1.9945   -1.8218   -3.7434 H   0  0  0  0  0  0  0  0  0  0  0  0
   -1.7299   -3.5642    0.1877 H   0  0  0  0  0  0  0  0  0  0  0  0
    0.0128    2.7870   -0.3911 H   0  0  0  0  0  0  0  0  0  0  0  0
    0.8325    1.6368   -1.4458 H   0  0  0  0  0  0  0  0  0  0  0  0
    1.9873    1.6737    0.7191 H   0  0  0  0  0  0  0  0  0  0  0  0
    0.4873    1.4298    1.5875 H   0  0  0  0  0  0  0  0  0  0  0  0
   -1.7581    1.1609    0.1199 H   0  0  0  0  0  0  0  0  0  0  0  0
   -1.5792    1.3411   -1.6291 H   0  0  0  0  0  0  0  0  0  0  0  0
    0.0262   -2.1005    0.1810 H   0  0  0  0  0  0  0  0  0  0  0  0
   -0.7837   -0.9359    1.2136 H   0  0  0  0  0  0  0  0  0  0  0  0
    1.8600   -0.5522   -0.3031 H   0  0  0  0  0  0  0  0  0  0  0  0
   -2.7310   -0.5722   -1.7468 H   0  0  0  0  0  0  0  0  0  0  0  0
   -2.6234   -1.2802   -0.1347 H   0  0  0  0  0  0  0  0  0  0  0  0
    2.6517   -0.3871    1.8015 H   0  0  0  0  0  0  0  0  0  0  0  0
  1  2  1  0  0  0  0
  1  3  2  0  0  0  0
  2  4  2  0  0  0  0
  3  5  1  0  0  0  0
  4  6  1  0  0  0  0
  5  6  2  0  0  0  0
  6 12  1  0  0  0  0
  7  8  1  0  0  0  0
  7  9  1  0  0  0  0
  8 11  1  0  0  0  0
  9 13  1  0  0  0  0
 10 11  1  0  0  0  0
 10 13  1  0  0  0  0
 11 14  1  0  0  0  0
 12 13  1  0  0  0  0
  1 15  1  0  0  0  0
  2 16  1  0  0  0  0
  3 17  1  0  0  0  0
  4 18  1  0  0  0  0
  5 19  1  0  0  0  0
  7 20  1  0  0  0  0
  7 21  1  0  0  0  0
  8 22  1  0  0  0  0
  8 23  1  0  0  0  0
  9 24  1  0  0  0  0
  9 25  1  0  0  0  0
 10 26  1  0  0  0  0
 10 27  1  0  0  0  0
 11 28  1  0  0  0  0
 12 29  1  0  0  0  0
 12 30  1  0  0  0  0
 14 31  1  0  0  0  0
M  END
$$$$
frag.vs.358
  -OEChem-01121112263D

 34 35  0     0  0  0  0  0  0999 V2000
   -1.0999   -4.8766    3.6310 C   0  0  0  0  0  0  0  0  0  0  0  0
   -2.1595   -3.9989    3.8601 C   0  0  0  0  0  0  0  0  0  0  0  0
    0.2021   -4.3866    3.5288 C   0  0  0  0  0  0  0  0  0  0  0  0
   -1.9171   -2.6311    3.9870 C   0  0  0  0  0  0  0  0  0  0  0  0
    0.4444   -3.0188    3.6557 C   0  0  0  0  0  0  0  0  0  0  0  0
   -0.6151   -2.1410    3.8848 C   0  0  0  0  0  0  0  0  0  0  0  0
    0.7568    0.5080    0.6123 C   0  0  0  0  0  0  0  0  0  0  0  0
   -0.8460    2.1711    1.5860 C   0  0  0  0  0  0  0  0  0  0  0  0
    0.8306   -0.1625    1.9857 C   0  0  0  0  0  0  0  0  0  0  0  0
   -0.7187    1.4459    2.9273 C   0  0  0  0  0  0  0  0  0  0  0  0
    0.4174    1.9972    0.7364 C   0  0  0  0  0  0  0  0  0  0  0  0
   -0.3536   -0.6689    4.0210 C   0  0  0  0  0  0  0  0  0  0  0  0
    0.2466    2.6374   -0.6384 C   0  0  0  0  0  0  0  0  0  0  0  0
   -0.4210    0.0206    2.7327 N   0  0  0  0  0  0  0  0  0  0  0  0
    1.4629    2.5052   -1.3507 O   0  0  0  0  0  0  0  0  0  0  0  0
   -1.2886   -5.9417    3.5335 H   0  0  0  0  0  0  0  0  0  0  0  0
   -3.1732   -4.3804    3.9407 H   0  0  0  0  0  0  0  0  0  0  0  0
    1.0274   -5.0698    3.3516 H   0  0  0  0  0  0  0  0  0  0  0  0
   -2.7489   -1.9546    4.1652 H   0  0  0  0  0  0  0  0  0  0  0  0
    1.4621   -2.6460    3.5746 H   0  0  0  0  0  0  0  0  0  0  0  0
    1.7167    0.3850    0.0964 H   0  0  0  0  0  0  0  0  0  0  0  0
   -0.0000   -0.0001   -0.0002 H   0  0  0  0  0  0  0  0  0  0  0  0
   -1.7193    1.7835    1.0445 H   0  0  0  0  0  0  0  0  0  0  0  0
   -1.0319    3.2368    1.7658 H   0  0  0  0  0  0  0  0  0  0  0  0
    1.0181   -1.2324    1.8329 H   0  0  0  0  0  0  0  0  0  0  0  0
    1.6842    0.2407    2.5466 H   0  0  0  0  0  0  0  0  0  0  0  0
    0.0580    1.9291    3.5348 H   0  0  0  0  0  0  0  0  0  0  0  0
   -1.6680    1.5561    3.4656 H   0  0  0  0  0  0  0  0  0  0  0  0
    1.2499    2.5015    1.2452 H   0  0  0  0  0  0  0  0  0  0  0  0
   -1.0878   -0.2066    4.6898 H   0  0  0  0  0  0  0  0  0  0  0  0
    0.6375   -0.4838    4.4484 H   0  0  0  0  0  0  0  0  0  0  0  0
    0.0060    3.6946   -0.5285 H   0  0  0  0  0  0  0  0  0  0  0  0
   -0.5491    2.1335   -1.1867 H   0  0  0  0  0  0  0  0  0  0  0  0
    1.3308    2.9189   -2.2208 H   0  0  0  0  0  0  0  0  0  0  0  0
  1  2  1  0  0  0  0
  1  3  2  0  0  0  0
  2  4  2  0  0  0  0
  3  5  1  0  0  0  0
  4  6  1  0  0  0  0
  5  6  2  0  0  0  0
  6 12  1  0  0  0  0
  7  9  1  0  0  0  0
  7 11  1  0  0  0  0
  8 10  1  0  0  0  0
  8 11  1  0  0  0  0
  9 14  1  0  0  0  0
 10 14  1  0  0  0  0
 11 13  1  0  0  0  0
 12 14  1  0  0  0  0
 13 15  1  0  0  0  0
  1 16  1  0  0  0  0
  2 17  1  0  0  0  0
  3 18  1  0  0  0  0
  4 19  1  0  0  0  0
  5 20  1  0  0  0  0
  7 21  1  0  0  0  0
  7 22  1  0  0  0  0
  8 23  1  0  0  0  0
  8 24  1  0  0  0  0
  9 25  1  0  0  0  0
  9 26  1  0  0  0  0
 10 27  1  0  0  0  0
 10 28  1  0  0  0  0
 11 29  1  0  0  0  0
 12 30  1  0  0  0  0
 12 31  1  0  0  0  0
 13 32  1  0  0  0  0
 13 33  1  0  0  0  0
 15 34  1  0  0  0  0
M  END
$$$$
frag.vs.359
  -OEChem-01121112263D

 32 33  0     0  0  0  0  0  0999 V2000
    3.3018   -1.0694    6.0098 C   0  0  0  0  0  0  0  0  0  0  0  0
    4.1632   -1.8674    5.2569 C   0  0  0  0  0  0  0  0  0  0  0  0
    1.9523   -0.9837    5.6672 C   0  0  0  0  0  0  0  0  0  0  0  0
    3.6752   -2.5796    4.1614 C   0  0  0  0  0  0  0  0  0  0  0  0
    1.4643   -1.6960    4.5717 C   0  0  0  0  0  0  0  0  0  0  0  0
    2.3257   -2.4939    3.8188 C   0  0  0  0  0  0  0  0  0  0  0  0
    0.8629   -0.6749    0.0562 C   0  0  0  0  0  0  0  0  0  0  0  0
    2.0413   -2.5835   -1.0646 C   0  0  0  0  0  0  0  0  0  0  0  0
    0.7638   -1.5320    1.3193 C   0  0  0  0  0  0  0  0  0  0  0  0
    1.9045   -3.3772    0.2359 C   0  0  0  0  0  0  0  0  0  0  0  0
    0.9291   -1.5439   -1.2001 C   0  0  0  0  0  0  0  0  0  0  0  0
    1.7998   -3.2601    2.6395 C   0  0  0  0  0  0  0  0  0  0  0  0
    1.8803   -2.4838    1.4023 N   0  0  0  0  0  0  0  0  0  0  0  0
    1.1209   -0.7374   -2.3796 N   0  0  0  0  0  0  0  0  0  0  0  0
    3.6817   -0.5160    6.8636 H   0  0  0  0  0  0  0  0  0  0  0  0
    5.2137   -1.9351    5.5242 H   0  0  0  0  0  0  0  0  0  0  0  0
    1.2812   -0.3634    6.2539 H   0  0  0  0  0  0  0  0  0  0  0  0
    4.3537   -3.1987    3.5804 H   0  0  0  0  0  0  0  0  0  0  0  0
    0.4115   -1.6230    4.3121 H   0  0  0  0  0  0  0  0  0  0  0  0
   -0.0171   -0.0260   -0.0063 H   0  0  0  0  0  0  0  0  0  0  0  0
    1.7350   -0.0184    0.1212 H   0  0  0  0  0  0  0  0  0  0  0  0
    3.0254   -2.1079   -1.1068 H   0  0  0  0  0  0  0  0  0  0  0  0
    1.9879   -3.2741   -1.9128 H   0  0  0  0  0  0  0  0  0  0  0  0
    0.7275   -0.8908    2.2097 H   0  0  0  0  0  0  0  0  0  0  0  0
   -0.1849   -2.0819    1.2813 H   0  0  0  0  0  0  0  0  0  0  0  0
    0.9665   -3.9444    0.1887 H   0  0  0  0  0  0  0  0  0  0  0  0
    2.7182   -4.1097    0.3190 H   0  0  0  0  0  0  0  0  0  0  0  0
   -0.0366   -2.0785   -1.3066 H   0  0  0  0  0  0  0  0  0  0  0  0
    2.3689   -4.1849    2.4951 H   0  0  0  0  0  0  0  0  0  0  0  0
    0.7526   -3.5427    2.7899 H   0  0  0  0  0  0  0  0  0  0  0  0
    0.6816    0.1546   -2.4088 H   0  0  0  0  0  0  0  0  0  0  0  0
    1.5045   -1.1771   -3.1853 H   0  0  0  0  0  0  0  0  0  0  0  0
  1  2  1  0  0  0  0
  1  3  2  0  0  0  0
  2  4  2  0  0  0  0
  3  5  1  0  0  0  0
  4  6  1  0  0  0  0
  5  6  2  0  0  0  0
  6 12  1  0  0  0  0
  7  9  1  0  0  0  0
  7 11  1  0  0  0  0
  8 10  1  0  0  0  0
  8 11  1  0  0  0  0
  9 13  1  0  0  0  0
 10 13  1  0  0  0  0
 11 14  1  0  0  0  0
 12 13  1  0  0  0  0
  1 15  1  0  0  0  0
  2 16  1  0  0  0  0
  3 17  1  0  0  0  0
  4 18  1  0  0  0  0
  5 19  1  0  0  0  0
  7 20  1  0  0  0  0
  7 21  1  0  0  0  0
  8 22  1  0  0  0  0
  8 23  1  0  0  0  0
  9 24  1  0  0  0  0
  9 25  1  0  0  0  0
 10 26  1  0  0  0  0
 10 27  1  0  0  0  0
 11 28  1  0  0  0  0
 12 29  1  0  0  0  0
 12 30  1  0  0  0  0
 14 31  1  0  0  0  0
 14 32  1  0  0  0  0
M  END
$$$$
frag.vs.360
  -OEChem-01121112263D

 24 25  0     0  0  0  0  0  0999 V2000
    1.8851   -1.0363   -0.1124 C   0  0  0  0  0  0  0  0  0  0  0  0
    0.8066   -0.4630    0.5610 C   0  0  0  0  0  0  0  0  0  0  0  0
    1.0377   -1.4671    6.1323 C   0  0  0  0  0  0  0  0  0  0  0  0
    2.2500   -0.7364    6.1912 C   0  0  0  0  0  0  0  0  0  0  0  0
    2.9210   -1.6309    0.6081 C   0  0  0  0  0  0  0  0  0  0  0  0
    0.7638   -0.4841    1.9551 C   0  0  0  0  0  0  0  0  0  0  0  0
    0.7446   -1.6709    4.8019 C   0  0  0  0  0  0  0  0  0  0  0  0
    2.6607   -0.5157    4.8951 C   0  0  0  0  0  0  0  0  0  0  0  0
    2.8783   -1.6520    2.0022 C   0  0  0  0  0  0  0  0  0  0  0  0
    1.7997   -1.0786    2.6757 C   0  0  0  0  0  0  0  0  0  0  0  0
    4.0043   -2.2967    2.7449 C   0  0  0  0  0  0  0  0  0  0  0  0
    1.7378   -1.0879    4.0590 N   0  0  0  0  0  0  0  0  0  0  0  0
    3.4963   -3.3675    3.5290 O   0  0  0  0  0  0  0  0  0  0  0  0
    1.9182   -1.0203   -1.1979 H   0  0  0  0  0  0  0  0  0  0  0  0
    0.0001    0.0001   -0.0000 H   0  0  0  0  0  0  0  0  0  0  0  0
    0.4424   -1.8078    6.9677 H   0  0  0  0  0  0  0  0  0  0  0  0
    2.7678   -0.4060    7.0808 H   0  0  0  0  0  0  0  0  0  0  0  0
    3.7569   -2.0744    0.0736 H   0  0  0  0  0  0  0  0  0  0  0  0
   -0.0838   -0.0324    2.4647 H   0  0  0  0  0  0  0  0  0  0  0  0
   -0.0876   -2.1785    4.3312 H   0  0  0  0  0  0  0  0  0  0  0  0
    3.5300   -0.0003    4.5076 H   0  0  0  0  0  0  0  0  0  0  0  0
    4.7607   -2.6916    2.0550 H   0  0  0  0  0  0  0  0  0  0  0  0
    4.5021   -1.5766    3.4065 H   0  0  0  0  0  0  0  0  0  0  0  0
    4.2539   -3.7586    3.9937 H   0  0  0  0  0  0  0  0  0  0  0  0
  1  2  1  0  0  0  0
  1  5  2  0  0  0  0
  2  6  2  0  0  0  0
  3  4  1  0  0  0  0
  3  7  2  0  0  0  0
  4  8  2  0  0  0  0
  5  9  1  0  0  0  0
  6 10  1  0  0  0  0
  7 12  1  0  0  0  0
  8 12  1  0  0  0  0
  9 10  2  0  0  0  0
  9 11  1  0  0  0  0
 10 12  1  0  0  0  0
 11 13  1  0  0  0  0
  1 14  1  0  0  0  0
  2 15  1  0  0  0  0
  3 16  1  0  0  0  0
  4 17  1  0  0  0  0
  5 18  1  0  0  0  0
  6 19  1  0  0  0  0
  7 20  1  0  0  0  0
  8 21  1  0  0  0  0
 11 22  1  0  0  0  0
 11 23  1  0  0  0  0
 13 24  1  0  0  0  0
M  END
$$$$
frag.vs.361
  -OEChem-01121112263D

 22 23  0     0  0  0  0  0  0999 V2000
    0.3628   -2.1619    1.5757 C   0  0  0  0  0  0  0  0  0  0  0  0
    5.6183    0.2646    1.3022 C   0  0  0  0  0  0  0  0  0  0  0  0
    5.9659   -0.9952    1.8490 C   0  0  0  0  0  0  0  0  0  0  0  0
    1.5273   -1.8568    2.2714 C   0  0  0  0  0  0  0  0  0  0  0  0
   -0.6398   -1.2063    1.5385 C   0  0  0  0  0  0  0  0  0  0  0  0
    0.5918    0.2641    2.8031 C   0  0  0  0  0  0  0  0  0  0  0  0
    4.4485    0.6673    1.9077 C   0  0  0  0  0  0  0  0  0  0  0  0
    4.9977   -1.3243    2.7719 C   0  0  0  0  0  0  0  0  0  0  0  0
    1.6520   -0.6227    2.8997 C   0  0  0  0  0  0  0  0  0  0  0  0
    2.8852   -0.2665    3.6509 C   0  0  0  0  0  0  0  0  0  0  0  0
   -0.5550    0.0032    2.1364 N   0  0  0  0  0  0  0  0  0  0  0  0
    4.0803   -0.3065    2.7990 N   0  0  0  0  0  0  0  0  0  0  0  0
    0.2437   -3.1176    1.0780 H   0  0  0  0  0  0  0  0  0  0  0  0
    6.1603    0.8186    0.5486 H   0  0  0  0  0  0  0  0  0  0  0  0
    6.8276   -1.5977    1.5981 H   0  0  0  0  0  0  0  0  0  0  0  0
    2.3317   -2.5858    2.3184 H   0  0  0  0  0  0  0  0  0  0  0  0
   -1.5677   -1.3961    1.0091 H   0  0  0  0  0  0  0  0  0  0  0  0
    0.6316    1.2421    3.2728 H   0  0  0  0  0  0  0  0  0  0  0  0
    3.8519    1.5603    1.7775 H   0  0  0  0  0  0  0  0  0  0  0  0
    4.8875   -2.1930    3.4070 H   0  0  0  0  0  0  0  0  0  0  0  0
    2.8253    0.7445    4.0886 H   0  0  0  0  0  0  0  0  0  0  0  0
    3.0631   -0.9471    4.5008 H   0  0  0  0  0  0  0  0  0  0  0  0
  1  4  2  0  0  0  0
  1  5  1  0  0  0  0
  2  3  1  0  0  0  0
  2  7  2  0  0  0  0
  3  8  2  0  0  0  0
  4  9  1  0  0  0  0
  5 11  2  0  0  0  0
  6  9  2  0  0  0  0
  6 11  1  0  0  0  0
  7 12  1  0  0  0  0
  8 12  1  0  0  0  0
  9 10  1  0  0  0  0
 10 12  1  0  0  0  0
  1 13  1  0  0  0  0
  2 14  1  0  0  0  0
  3 15  1  0  0  0  0
  4 16  1  0  0  0  0
  5 17  1  0  0  0  0
  6 18  1  0  0  0  0
  7 19  1  0  0  0  0
  8 20  1  0  0  0  0
 10 21  1  0  0  0  0
 10 22  1  0  0  0  0
M  END
$$$$
frag.vs.362
  -OEChem-01121112263D

 22 23  0     0  0  0  0  0  0999 V2000
   -0.4874   -1.4296    1.3793 C   0  0  0  0  0  0  0  0  0  0  0  0
    0.3091   -0.3602    0.9851 C   0  0  0  0  0  0  0  0  0  0  0  0
    4.3045   -3.6165    4.7820 C   0  0  0  0  0  0  0  0  0  0  0  0
    3.4868   -4.7709    4.7054 C   0  0  0  0  0  0  0  0  0  0  0  0
   -0.2795   -2.0242    2.6189 C   0  0  0  0  0  0  0  0  0  0  0  0
    1.2920    0.0735    1.8601 C   0  0  0  0  0  0  0  0  0  0  0  0
    3.4690   -2.5217    4.8103 C   0  0  0  0  0  0  0  0  0  0  0  0
    2.1764   -4.3464    4.6890 C   0  0  0  0  0  0  0  0  0  0  0  0
    0.7299   -1.5161    3.4206 C   0  0  0  0  0  0  0  0  0  0  0  0
    0.9810   -2.1301    4.7574 C   0  0  0  0  0  0  0  0  0  0  0  0
    1.5237   -0.4788    3.0720 N   0  0  0  0  0  0  0  0  0  0  0  0
    2.1777   -2.9774    4.7529 N   0  0  0  0  0  0  0  0  0  0  0  0
   -1.2685   -1.7987    0.7217 H   0  0  0  0  0  0  0  0  0  0  0  0
    0.1650    0.1187    0.0235 H   0  0  0  0  0  0  0  0  0  0  0  0
    5.3845   -3.5852    4.8123 H   0  0  0  0  0  0  0  0  0  0  0  0
    3.8161   -5.7997    4.6663 H   0  0  0  0  0  0  0  0  0  0  0  0
   -0.8939   -2.8591    2.9382 H   0  0  0  0  0  0  0  0  0  0  0  0
    1.9398    0.9042    1.6000 H   0  0  0  0  0  0  0  0  0  0  0  0
    3.6863   -1.4634    4.8654 H   0  0  0  0  0  0  0  0  0  0  0  0
    1.2501   -4.9026    4.6376 H   0  0  0  0  0  0  0  0  0  0  0  0
    1.1157   -1.3660    5.5391 H   0  0  0  0  0  0  0  0  0  0  0  0
    0.1337   -2.7515    5.0874 H   0  0  0  0  0  0  0  0  0  0  0  0
  1  2  1  0  0  0  0
  1  5  2  0  0  0  0
  2  6  2  0  0  0  0
  3  4  1  0  0  0  0
  3  7  2  0  0  0  0
  4  8  2  0  0  0  0
  5  9  1  0  0  0  0
  6 11  1  0  0  0  0
  7 12  1  0  0  0  0
  8 12  1  0  0  0  0
  9 10  1  0  0  0  0
  9 11  2  0  0  0  0
 10 12  1  0  0  0  0
  1 13  1  0  0  0  0
  2 14  1  0  0  0  0
  3 15  1  0  0  0  0
  4 16  1  0  0  0  0
  5 17  1  0  0  0  0
  6 18  1  0  0  0  0
  7 19  1  0  0  0  0
  8 20  1  0  0  0  0
 10 21  1  0  0  0  0
 10 22  1  0  0  0  0
M  END
$$$$
frag.vs.363
  -OEChem-01121112263D

 37 38  0     0  0  0  0  0  0999 V2000
    0.1978    0.2857   -1.0427 C   0  0  0  0  0  0  0  0  0  0  0  0
    3.2237   -2.2540    0.5292 C   0  0  0  0  0  0  0  0  0  0  0  0
    3.3578   -1.1834    1.6103 C   0  0  0  0  0  0  0  0  0  0  0  0
    3.4725   -1.7203   -0.8802 C   0  0  0  0  0  0  0  0  0  0  0  0
    2.3056   -0.0785    1.5592 C   0  0  0  0  0  0  0  0  0  0  0  0
   -1.5475    0.3832   -2.8263 C   0  0  0  0  0  0  0  0  0  0  0  0
   -1.1464   -1.7563   -1.5541 C   0  0  0  0  0  0  0  0  0  0  0  0
    2.2302   -1.1182   -1.5352 C   0  0  0  0  0  0  0  0  0  0  0  0
    2.2678    0.6787    0.2352 C   0  0  0  0  0  0  0  0  0  0  0  0
   -2.7997    0.5931   -1.9734 C   0  0  0  0  0  0  0  0  0  0  0  0
   -2.4154   -1.4563   -0.7546 C   0  0  0  0  0  0  0  0  0  0  0  0
   -0.5055   -0.4882   -2.1220 C   0  0  0  0  0  0  0  0  0  0  0  0
   -3.3738   -0.6807   -1.5413 N   0  0  0  0  0  0  0  0  0  0  0  0
    1.5328   -0.0628   -0.7918 N   0  0  0  0  0  0  0  0  0  0  0  0
   -0.4153    1.1674   -0.4353 O   0  0  0  0  0  0  0  0  0  0  0  0
    3.9741   -3.0270    0.7369 H   0  0  0  0  0  0  0  0  0  0  0  0
    2.2448   -2.7434    0.5933 H   0  0  0  0  0  0  0  0  0  0  0  0
    3.2965   -1.6703    2.5914 H   0  0  0  0  0  0  0  0  0  0  0  0
    4.3571   -0.7336    1.5540 H   0  0  0  0  0  0  0  0  0  0  0  0
    4.2977   -0.9987   -0.8767 H   0  0  0  0  0  0  0  0  0  0  0  0
    3.8047   -2.5535   -1.5126 H   0  0  0  0  0  0  0  0  0  0  0  0
    1.3180   -0.4998    1.7842 H   0  0  0  0  0  0  0  0  0  0  0  0
    2.5346    0.6344    2.3610 H   0  0  0  0  0  0  0  0  0  0  0  0
   -1.8330   -0.1055   -3.7663 H   0  0  0  0  0  0  0  0  0  0  0  0
   -1.1217    1.3581   -3.0898 H   0  0  0  0  0  0  0  0  0  0  0  0
   -0.4357   -2.2940   -0.9163 H   0  0  0  0  0  0  0  0  0  0  0  0
   -1.3978   -2.4238   -2.3878 H   0  0  0  0  0  0  0  0  0  0  0  0
    2.5112   -0.6866   -2.5033 H   0  0  0  0  0  0  0  0  0  0  0  0
    1.5230   -1.9280   -1.7425 H   0  0  0  0  0  0  0  0  0  0  0  0
    1.7625    1.6364    0.4056 H   0  0  0  0  0  0  0  0  0  0  0  0
    3.2688    0.9235   -0.1357 H   0  0  0  0  0  0  0  0  0  0  0  0
   -2.5720    1.2203   -1.1030 H   0  0  0  0  0  0  0  0  0  0  0  0
   -3.5466    1.1333   -2.5655 H   0  0  0  0  0  0  0  0  0  0  0  0
   -2.8840   -2.4038   -0.4662 H   0  0  0  0  0  0  0  0  0  0  0  0
   -2.1744   -0.9295    0.1761 H   0  0  0  0  0  0  0  0  0  0  0  0
    0.2712   -0.7691   -2.8368 H   0  0  0  0  0  0  0  0  0  0  0  0
   -4.2041   -0.5008   -0.9774 H   0  0  0  0  0  0  0  0  0  0  0  0
  1 12  1  0  0  0  0
  1 14  1  0  0  0  0
  1 15  2  0  0  0  0
  2  3  1  0  0  0  0
  2  4  1  0  0  0  0
  3  5  1  0  0  0  0
  4  8  1  0  0  0  0
  5  9  1  0  0  0  0
  6 10  1  0  0  0  0
  6 12  1  0  0  0  0
  7 11  1  0  0  0  0
  7 12  1  0  0  0  0
  8 14  1  0  0  0  0
  9 14  1  0  0  0  0
 10 13  1  0  0  0  0
 11 13  1  0  0  0  0
  2 16  1  0  0  0  0
  2 17  1  0  0  0  0
  3 18  1  0  0  0  0
  3 19  1  0  0  0  0
  4 20  1  0  0  0  0
  4 21  1  0  0  0  0
  5 22  1  0  0  0  0
  5 23  1  0  0  0  0
  6 24  1  0  0  0  0
  6 25  1  0  0  0  0
  7 26  1  0  0  0  0
  7 27  1  0  0  0  0
  8 28  1  0  0  0  0
  8 29  1  0  0  0  0
  9 30  1  0  0  0  0
  9 31  1  0  0  0  0
 10 32  1  0  0  0  0
 10 33  1  0  0  0  0
 11 34  1  0  0  0  0
 11 35  1  0  0  0  0
 12 36  1  0  0  0  0
 13 37  1  0  0  0  0
M  END
$$$$
frag.vs.364
  -OEChem-01121112263D

 46 47  0     0  0  0  0  0  0999 V2000
   -4.9668   -0.8852   -6.3524 C   0  0  0  0  0  0  0  0  0  0  0  0
   -3.7675   -1.1320   -5.6843 C   0  0  0  0  0  0  0  0  0  0  0  0
   -5.6391    0.3211   -6.1561 C   0  0  0  0  0  0  0  0  0  0  0  0
   -3.9128    1.0338   -4.6235 C   0  0  0  0  0  0  0  0  0  0  0  0
   -3.2405   -0.1725   -4.8198 C   0  0  0  0  0  0  0  0  0  0  0  0
   -5.1121    1.2806   -5.2916 C   0  0  0  0  0  0  0  0  0  0  0  0
   -1.3356   -1.9668    1.1942 C   0  0  0  0  0  0  0  0  0  0  0  0
   -0.9826   -0.0974   -0.4702 C   0  0  0  0  0  0  0  0  0  0  0  0
   -2.9511   -1.5755   -0.6484 C   0  0  0  0  0  0  0  0  0  0  0  0
   -0.8168   -0.1813   -1.9882 C   0  0  0  0  0  0  0  0  0  0  0  0
   -2.7418   -1.6322   -2.1613 C   0  0  0  0  0  0  0  0  0  0  0  0
    0.5516   -3.5665    2.6329 C   0  0  0  0  0  0  0  0  0  0  0  0
    1.4750   -1.3882    3.4765 C   0  0  0  0  0  0  0  0  0  0  0  0
   -0.8870   -2.0418    4.0259 C   0  0  0  0  0  0  0  0  0  0  0  0
   -1.9499   -0.4388   -4.1003 C   0  0  0  0  0  0  0  0  0  0  0  0
    0.2262   -2.1149    2.9818 C   0  0  0  0  0  0  0  0  0  0  0  0
   -1.7051   -1.2620    0.0460 N   0  0  0  0  0  0  0  0  0  0  0  0
   -2.1139   -0.3945   -2.6479 N   0  0  0  0  0  0  0  0  0  0  0  0
   -5.7917    2.5005   -5.0935 N   0  0  0  0  0  0  0  0  0  0  0  0
   -1.9395   -2.9450    1.6307 O   0  0  0  0  0  0  0  0  0  0  0  0
   -0.2182   -1.4493    1.7940 O   0  0  0  0  0  0  0  0  0  0  0  0
   -5.3771   -1.6324   -7.0257 H   0  0  0  0  0  0  0  0  0  0  0  0
   -3.2503   -2.0748   -5.8433 H   0  0  0  0  0  0  0  0  0  0  0  0
   -6.5728    0.5032   -6.6820 H   0  0  0  0  0  0  0  0  0  0  0  0
   -3.5003    1.7810   -3.9493 H   0  0  0  0  0  0  0  0  0  0  0  0
   -0.0001    0.0004    0.0001 H   0  0  0  0  0  0  0  0  0  0  0  0
   -1.5668    0.7898   -0.1966 H   0  0  0  0  0  0  0  0  0  0  0  0
   -3.6731   -0.7918   -0.3879 H   0  0  0  0  0  0  0  0  0  0  0  0
   -3.3591   -2.5274   -0.2933 H   0  0  0  0  0  0  0  0  0  0  0  0
   -0.3682    0.7560   -2.3384 H   0  0  0  0  0  0  0  0  0  0  0  0
   -0.1204   -0.9938   -2.2352 H   0  0  0  0  0  0  0  0  0  0  0  0
   -2.1223   -2.5035   -2.4127 H   0  0  0  0  0  0  0  0  0  0  0  0
   -3.7182   -1.7716   -2.6403 H   0  0  0  0  0  0  0  0  0  0  0  0
   -0.3422   -4.0915    2.2774 H   0  0  0  0  0  0  0  0  0  0  0  0
    1.3240   -3.6321    1.8597 H   0  0  0  0  0  0  0  0  0  0  0  0
    0.8997   -4.1126    3.5171 H   0  0  0  0  0  0  0  0  0  0  0  0
    1.2462   -0.3463    3.7280 H   0  0  0  0  0  0  0  0  0  0  0  0
    2.2429   -1.3557    2.6951 H   0  0  0  0  0  0  0  0  0  0  0  0
    1.9007   -1.8729    4.3610 H   0  0  0  0  0  0  0  0  0  0  0  0
   -1.1205   -1.0007    4.2763 H   0  0  0  0  0  0  0  0  0  0  0  0
   -1.8032   -2.5263    3.6731 H   0  0  0  0  0  0  0  0  0  0  0  0
   -0.5766   -2.5225    4.9607 H   0  0  0  0  0  0  0  0  0  0  0  0
   -1.5568   -1.4264   -4.3654 H   0  0  0  0  0  0  0  0  0  0  0  0
   -1.1880    0.2987   -4.3739 H   0  0  0  0  0  0  0  0  0  0  0  0
   -6.6252    2.6847   -5.6142 H   0  0  0  0  0  0  0  0  0  0  0  0
   -5.3797    3.1987   -4.5081 H   0  0  0  0  0  0  0  0  0  0  0  0
  1  2  2  0  0  0  0
  1  3  1  0  0  0  0
  2  5  1  0  0  0  0
  3  6  2  0  0  0  0
  4  5  2  0  0  0  0
  4  6  1  0  0  0  0
  5 15  1  0  0  0  0
  6 19  1  0  0  0  0
  7 17  1  0  0  0  0
  7 20  2  0  0  0  0
  7 21  1  0  0  0  0
  8 10  1  0  0  0  0
  8 17  1  0  0  0  0
  9 11  1  0  0  0  0
  9 17  1  0  0  0  0
 10 18  1  0  0  0  0
 11 18  1  0  0  0  0
 12 16  1  0  0  0  0
 13 16  1  0  0  0  0
 14 16  1  0  0  0  0
 15 18  1  0  0  0  0
 16 21  1  0  0  0  0
  1 22  1  0  0  0  0
  2 23  1  0  0  0  0
  3 24  1  0  0  0  0
  4 25  1  0  0  0  0
  8 26  1  0  0  0  0
  8 27  1  0  0  0  0
  9 28  1  0  0  0  0
  9 29  1  0  0  0  0
 10 30  1  0  0  0  0
 10 31  1  0  0  0  0
 11 32  1  0  0  0  0
 11 33  1  0  0  0  0
 12 34  1  0  0  0  0
 12 35  1  0  0  0  0
 12 36  1  0  0  0  0
 13 37  1  0  0  0  0
 13 38  1  0  0  0  0
 13 39  1  0  0  0  0
 14 40  1  0  0  0  0
 14 41  1  0  0  0  0
 14 42  1  0  0  0  0
 15 43  1  0  0  0  0
 15 44  1  0  0  0  0
 19 45  1  0  0  0  0
 19 46  1  0  0  0  0
M  END
$$$$
frag.vs.365
  -OEChem-01121112263D

 32 33  0     0  0  0  0  0  0999 V2000
    0.4027   -1.1933    3.8606 C   0  0  0  0  0  0  0  0  0  0  0  0
    1.3740   -0.6102    4.6743 C   0  0  0  0  0  0  0  0  0  0  0  0
    0.5846   -1.2354    2.4782 C   0  0  0  0  0  0  0  0  0  0  0  0
    2.7090   -0.1113    2.7234 C   0  0  0  0  0  0  0  0  0  0  0  0
    2.5271   -0.0692    4.1058 C   0  0  0  0  0  0  0  0  0  0  0  0
    1.7377   -0.6944    1.9097 C   0  0  0  0  0  0  0  0  0  0  0  0
    3.5401    0.5385    4.9542 C   0  0  0  0  0  0  0  0  0  0  0  0
    0.7537   -0.7086   -0.3650 C   0  0  0  0  0  0  0  0  0  0  0  0
    3.0973   -1.4436    0.0030 C   0  0  0  0  0  0  0  0  0  0  0  0
    1.1590   -0.2571   -1.7703 C   0  0  0  0  0  0  0  0  0  0  0  0
    3.4272   -0.9673   -1.4135 C   0  0  0  0  0  0  0  0  0  0  0  0
    2.5985   -0.6737   -3.6556 C   0  0  0  0  0  0  0  0  0  0  0  0
    1.9200   -0.7367    0.5229 N   0  0  0  0  0  0  0  0  0  0  0  0
    2.2568   -1.0796   -2.2928 N   0  0  0  0  0  0  0  0  0  0  0  0
    4.5949    1.0457    4.5589 O   0  0  0  0  0  0  0  0  0  0  0  0
    3.2071    0.4973    6.2735 O   0  0  0  0  0  0  0  0  0  0  0  0
   -0.4946   -1.6152    4.3034 H   0  0  0  0  0  0  0  0  0  0  0  0
    1.2218   -0.5834    5.7502 H   0  0  0  0  0  0  0  0  0  0  0  0
   -0.1787   -1.6924    1.8538 H   0  0  0  0  0  0  0  0  0  0  0  0
    3.6086    0.3107    2.2798 H   0  0  0  0  0  0  0  0  0  0  0  0
   -0.0020   -0.0153    0.0249 H   0  0  0  0  0  0  0  0  0  0  0  0
    0.2971   -1.7063   -0.4116 H   0  0  0  0  0  0  0  0  0  0  0  0
    2.9088   -2.5254   -0.0007 H   0  0  0  0  0  0  0  0  0  0  0  0
    3.9646   -1.2596    0.6493 H   0  0  0  0  0  0  0  0  0  0  0  0
    0.2822   -0.3423   -2.4238 H   0  0  0  0  0  0  0  0  0  0  0  0
    1.4461    0.8030   -1.7464 H   0  0  0  0  0  0  0  0  0  0  0  0
    3.7869    0.0699   -1.3772 H   0  0  0  0  0  0  0  0  0  0  0  0
    4.2479   -1.5836   -1.8002 H   0  0  0  0  0  0  0  0  0  0  0  0
    3.4162   -1.2904   -4.0375 H   0  0  0  0  0  0  0  0  0  0  0  0
    2.9111    0.3739   -3.6708 H   0  0  0  0  0  0  0  0  0  0  0  0
    1.7328   -0.7906   -4.3131 H   0  0  0  0  0  0  0  0  0  0  0  0
    3.8839    0.9058    6.8543 H   0  0  0  0  0  0  0  0  0  0  0  0
  1  2  1  0  0  0  0
  1  3  2  0  0  0  0
  2  5  2  0  0  0  0
  3  6  1  0  0  0  0
  4  5  1  0  0  0  0
  4  6  2  0  0  0  0
  5  7  1  0  0  0  0
  6 13  1  0  0  0  0
  7 15  2  0  0  0  0
  7 16  1  0  0  0  0
  8 10  1  0  0  0  0
  8 13  1  0  0  0  0
  9 11  1  0  0  0  0
  9 13  1  0  0  0  0
 10 14  1  0  0  0  0
 11 14  1  0  0  0  0
 12 14  1  0  0  0  0
  1 17  1  0  0  0  0
  2 18  1  0  0  0  0
  3 19  1  0  0  0  0
  4 20  1  0  0  0  0
  8 21  1  0  0  0  0
  8 22  1  0  0  0  0
  9 23  1  0  0  0  0
  9 24  1  0  0  0  0
 10 25  1  0  0  0  0
 10 26  1  0  0  0  0
 11 27  1  0  0  0  0
 11 28  1  0  0  0  0
 12 29  1  0  0  0  0
 12 30  1  0  0  0  0
 12 31  1  0  0  0  0
 16 32  1  0  0  0  0
M  END
$$$$
frag.vs.366
  -OEChem-01121112263D

 34 35  0     0  0  0  0  0  0999 V2000
    0.4031   -1.1936    3.8607 C   0  0  0  0  0  0  0  0  0  0  0  0
    1.3747   -0.6110    4.6744 C   0  0  0  0  0  0  0  0  0  0  0  0
    0.5846   -1.2354    2.4783 C   0  0  0  0  0  0  0  0  0  0  0  0
    2.7093   -0.1117    2.7234 C   0  0  0  0  0  0  0  0  0  0  0  0
    2.5278   -0.0700    4.1058 C   0  0  0  0  0  0  0  0  0  0  0  0
    1.7377   -0.6944    1.9097 C   0  0  0  0  0  0  0  0  0  0  0  0
    0.7537   -0.7086   -0.3650 C   0  0  0  0  0  0  0  0  0  0  0  0
    3.0973   -1.4436    0.0030 C   0  0  0  0  0  0  0  0  0  0  0  0
    1.1590   -0.2571   -1.7703 C   0  0  0  0  0  0  0  0  0  0  0  0
    3.4272   -0.9673   -1.4135 C   0  0  0  0  0  0  0  0  0  0  0  0
    2.5985   -0.6737   -3.6556 C   0  0  0  0  0  0  0  0  0  0  0  0
    3.5659    0.5534    4.9761 C   0  0  0  0  0  0  0  0  0  0  0  0
    1.9200   -0.7367    0.5229 N   0  0  0  0  0  0  0  0  0  0  0  0
    2.2568   -1.0796   -2.2928 N   0  0  0  0  0  0  0  0  0  0  0  0
    4.7234   -0.2894    5.1381 N   0  0  0  0  0  0  0  0  0  0  0  0
   -0.4948   -1.6150    4.3036 H   0  0  0  0  0  0  0  0  0  0  0  0
    1.2249   -0.5829    5.7508 H   0  0  0  0  0  0  0  0  0  0  0  0
   -0.1787   -1.6921    1.8535 H   0  0  0  0  0  0  0  0  0  0  0  0
    3.6091    0.3103    2.2817 H   0  0  0  0  0  0  0  0  0  0  0  0
   -0.0020   -0.0153    0.0249 H   0  0  0  0  0  0  0  0  0  0  0  0
    0.2971   -1.7063   -0.4116 H   0  0  0  0  0  0  0  0  0  0  0  0
    2.9088   -2.5254   -0.0007 H   0  0  0  0  0  0  0  0  0  0  0  0
    3.9646   -1.2596    0.6493 H   0  0  0  0  0  0  0  0  0  0  0  0
    0.2822   -0.3423   -2.4238 H   0  0  0  0  0  0  0  0  0  0  0  0
    1.4461    0.8030   -1.7464 H   0  0  0  0  0  0  0  0  0  0  0  0
    3.7869    0.0699   -1.3772 H   0  0  0  0  0  0  0  0  0  0  0  0
    4.2479   -1.5836   -1.8002 H   0  0  0  0  0  0  0  0  0  0  0  0
    3.4162   -1.2904   -4.0375 H   0  0  0  0  0  0  0  0  0  0  0  0
    2.9111    0.3739   -3.6708 H   0  0  0  0  0  0  0  0  0  0  0  0
    1.7328   -0.7906   -4.3131 H   0  0  0  0  0  0  0  0  0  0  0  0
    3.9104    1.5101    4.5587 H   0  0  0  0  0  0  0  0  0  0  0  0
    3.1744    0.7683    5.9799 H   0  0  0  0  0  0  0  0  0  0  0  0
    5.2892   -0.1887    5.9640 H   0  0  0  0  0  0  0  0  0  0  0  0
    5.0615   -0.8119    4.3473 H   0  0  0  0  0  0  0  0  0  0  0  0
  1  2  1  0  0  0  0
  1  3  2  0  0  0  0
  2  5  2  0  0  0  0
  3  6  1  0  0  0  0
  4  5  1  0  0  0  0
  4  6  2  0  0  0  0
  5 12  1  0  0  0  0
  6 13  1  0  0  0  0
  7  9  1  0  0  0  0
  7 13  1  0  0  0  0
  8 10  1  0  0  0  0
  8 13  1  0  0  0  0
  9 14  1  0  0  0  0
 10 14  1  0  0  0  0
 11 14  1  0  0  0  0
 12 15  1  0  0  0  0
  1 16  1  0  0  0  0
  2 17  1  0  0  0  0
  3 18  1  0  0  0  0
  4 19  1  0  0  0  0
  7 20  1  0  0  0  0
  7 21  1  0  0  0  0
  8 22  1  0  0  0  0
  8 23  1  0  0  0  0
  9 24  1  0  0  0  0
  9 25  1  0  0  0  0
 10 26  1  0  0  0  0
 10 27  1  0  0  0  0
 11 28  1  0  0  0  0
 11 29  1  0  0  0  0
 11 30  1  0  0  0  0
 12 31  1  0  0  0  0
 12 32  1  0  0  0  0
 15 33  1  0  0  0  0
 15 34  1  0  0  0  0
M  END
$$$$
frag.vs.367
  -OEChem-01121112263D

 33 34  0     0  0  0  0  0  0999 V2000
    1.3728   -0.6481    4.6751 C   0  0  0  0  0  0  0  0  0  0  0  0
    1.4142   -1.8666    3.9974 C   0  0  0  0  0  0  0  0  0  0  0  0
    1.5138    0.5472    3.9700 C   0  0  0  0  0  0  0  0  0  0  0  0
    1.5967   -1.8898    2.6147 C   0  0  0  0  0  0  0  0  0  0  0  0
    1.6963    0.5240    2.5874 C   0  0  0  0  0  0  0  0  0  0  0  0
    1.7377   -0.6944    1.9097 C   0  0  0  0  0  0  0  0  0  0  0  0
    0.7537   -0.7086   -0.3650 C   0  0  0  0  0  0  0  0  0  0  0  0
    3.0973   -1.4436    0.0030 C   0  0  0  0  0  0  0  0  0  0  0  0
    1.1590   -0.2571   -1.7703 C   0  0  0  0  0  0  0  0  0  0  0  0
    3.4272   -0.9673   -1.4135 C   0  0  0  0  0  0  0  0  0  0  0  0
    2.5985   -0.6737   -3.6556 C   0  0  0  0  0  0  0  0  0  0  0  0
    1.8446    1.8194    1.8576 C   0  0  0  0  0  0  0  0  0  0  0  0
    1.9200   -0.7367    0.5229 N   0  0  0  0  0  0  0  0  0  0  0  0
    2.2568   -1.0796   -2.2928 N   0  0  0  0  0  0  0  0  0  0  0  0
    3.2081    2.0042    1.5012 O   0  0  0  0  0  0  0  0  0  0  0  0
    1.2308   -0.6302    5.7517 H   0  0  0  0  0  0  0  0  0  0  0  0
    1.3044   -2.7972    4.5465 H   0  0  0  0  0  0  0  0  0  0  0  0
    1.4801    1.4913    4.5075 H   0  0  0  0  0  0  0  0  0  0  0  0
    1.6273   -2.8454    2.0974 H   0  0  0  0  0  0  0  0  0  0  0  0
   -0.0020   -0.0153    0.0249 H   0  0  0  0  0  0  0  0  0  0  0  0
    0.2971   -1.7063   -0.4116 H   0  0  0  0  0  0  0  0  0  0  0  0
    2.9088   -2.5254   -0.0007 H   0  0  0  0  0  0  0  0  0  0  0  0
    3.9646   -1.2596    0.6493 H   0  0  0  0  0  0  0  0  0  0  0  0
    0.2822   -0.3423   -2.4238 H   0  0  0  0  0  0  0  0  0  0  0  0
    1.4461    0.8030   -1.7464 H   0  0  0  0  0  0  0  0  0  0  0  0
    3.7869    0.0699   -1.3772 H   0  0  0  0  0  0  0  0  0  0  0  0
    4.2479   -1.5836   -1.8002 H   0  0  0  0  0  0  0  0  0  0  0  0
    3.4162   -1.2904   -4.0375 H   0  0  0  0  0  0  0  0  0  0  0  0
    2.9111    0.3739   -3.6708 H   0  0  0  0  0  0  0  0  0  0  0  0
    1.7328   -0.7906   -4.3131 H   0  0  0  0  0  0  0  0  0  0  0  0
    1.2361    1.8337    0.9442 H   0  0  0  0  0  0  0  0  0  0  0  0
    1.5237    2.6627    2.4825 H   0  0  0  0  0  0  0  0  0  0  0  0
    3.2623    2.8522    1.0316 H   0  0  0  0  0  0  0  0  0  0  0  0
  1  2  1  0  0  0  0
  1  3  2  0  0  0  0
  2  4  2  0  0  0  0
  3  5  1  0  0  0  0
  4  6  1  0  0  0  0
  5  6  2  0  0  0  0
  5 12  1  0  0  0  0
  6 13  1  0  0  0  0
  7  9  1  0  0  0  0
  7 13  1  0  0  0  0
  8 10  1  0  0  0  0
  8 13  1  0  0  0  0
  9 14  1  0  0  0  0
 10 14  1  0  0  0  0
 11 14  1  0  0  0  0
 12 15  1  0  0  0  0
  1 16  1  0  0  0  0
  2 17  1  0  0  0  0
  3 18  1  0  0  0  0
  4 19  1  0  0  0  0
  7 20  1  0  0  0  0
  7 21  1  0  0  0  0
  8 22  1  0  0  0  0
  8 23  1  0  0  0  0
  9 24  1  0  0  0  0
  9 25  1  0  0  0  0
 10 26  1  0  0  0  0
 10 27  1  0  0  0  0
 11 28  1  0  0  0  0
 11 29  1  0  0  0  0
 11 30  1  0  0  0  0
 12 31  1  0  0  0  0
 12 32  1  0  0  0  0
 15 33  1  0  0  0  0
M  END
$$$$
frag.vs.368
  -OEChem-01121112263D

 28 29  0     0  0  0  0  0  0999 V2000
    6.0601   -1.2275    2.5175 C   0  0  0  0  0  0  0  0  0  0  0  0
    6.1796   -0.3723    3.6129 C   0  0  0  0  0  0  0  0  0  0  0  0
    4.7998   -1.5240    1.9983 C   0  0  0  0  0  0  0  0  0  0  0  0
    5.0389    0.1865    4.1892 C   0  0  0  0  0  0  0  0  0  0  0  0
    3.6591   -0.9653    2.5746 C   0  0  0  0  0  0  0  0  0  0  0  0
    3.7786   -0.1100    3.6701 C   0  0  0  0  0  0  0  0  0  0  0  0
    0.3579   -0.5623    0.8694 C   0  0  0  0  0  0  0  0  0  0  0  0
    0.4287   -2.7367    1.8755 C   0  0  0  0  0  0  0  0  0  0  0  0
    1.8758   -0.4170    0.9712 C   0  0  0  0  0  0  0  0  0  0  0  0
    1.9493   -2.6714    2.0161 C   0  0  0  0  0  0  0  0  0  0  0  0
   -0.0354   -1.9632    0.7251 N   0  0  0  0  0  0  0  0  0  0  0  0
    2.4044   -1.2770    2.0387 N   0  0  0  0  0  0  0  0  0  0  0  0
    2.6365    0.4669    4.2691 N   0  0  0  0  0  0  0  0  0  0  0  0
    6.9484   -1.6621    2.0685 H   0  0  0  0  0  0  0  0  0  0  0  0
    7.1610   -0.1408    4.0165 H   0  0  0  0  0  0  0  0  0  0  0  0
    4.7193   -2.1921    1.1446 H   0  0  0  0  0  0  0  0  0  0  0  0
    5.1446    0.8521    5.0421 H   0  0  0  0  0  0  0  0  0  0  0  0
   -0.1239   -0.1287    1.7548 H   0  0  0  0  0  0  0  0  0  0  0  0
   -0.0003    0.0018    0.0014 H   0  0  0  0  0  0  0  0  0  0  0  0
    0.1233   -3.7814    1.7517 H   0  0  0  0  0  0  0  0  0  0  0  0
   -0.0517   -2.3686    2.7908 H   0  0  0  0  0  0  0  0  0  0  0  0
    2.3417   -0.6862    0.0139 H   0  0  0  0  0  0  0  0  0  0  0  0
    2.1192    0.6328    1.1764 H   0  0  0  0  0  0  0  0  0  0  0  0
    2.2420   -3.1802    2.9430 H   0  0  0  0  0  0  0  0  0  0  0  0
    2.4240   -3.2030    1.1806 H   0  0  0  0  0  0  0  0  0  0  0  0
   -1.0517   -2.0228    0.6676 H   0  0  0  0  0  0  0  0  0  0  0  0
    2.7500    1.0375    5.0809 H   0  0  0  0  0  0  0  0  0  0  0  0
    1.7314    0.2179    3.9277 H   0  0  0  0  0  0  0  0  0  0  0  0
  1  2  1  0  0  0  0
  1  3  2  0  0  0  0
  2  4  2  0  0  0  0
  3  5  1  0  0  0  0
  4  6  1  0  0  0  0
  5  6  2  0  0  0  0
  5 12  1  0  0  0  0
  6 13  1  0  0  0  0
  7  9  1  0  0  0  0
  7 11  1  0  0  0  0
  8 10  1  0  0  0  0
  8 11  1  0  0  0  0
  9 12  1  0  0  0  0
 10 12  1  0  0  0  0
  1 14  1  0  0  0  0
  2 15  1  0  0  0  0
  3 16  1  0  0  0  0
  4 17  1  0  0  0  0
  7 18  1  0  0  0  0
  7 19  1  0  0  0  0
  8 20  1  0  0  0  0
  8 21  1  0  0  0  0
  9 22  1  0  0  0  0
  9 23  1  0  0  0  0
 10 24  1  0  0  0  0
 10 25  1  0  0  0  0
 11 26  1  0  0  0  0
 13 27  1  0  0  0  0
 13 28  1  0  0  0  0
M  END
$$$$
frag.vs.369
  -OEChem-01121112263D

 33 34  0     0  0  0  0  0  0999 V2000
    0.8259   -2.8788    0.9496 C   0  0  0  0  0  0  0  0  0  0  0  0
   -1.0261   -3.2998   -0.5437 C   0  0  0  0  0  0  0  0  0  0  0  0
    0.1516   -3.5440    1.9735 C   0  0  0  0  0  0  0  0  0  0  0  0
   -1.7004   -3.9651    0.4802 C   0  0  0  0  0  0  0  0  0  0  0  0
    0.2370   -2.7566   -0.3090 C   0  0  0  0  0  0  0  0  0  0  0  0
   -1.1115   -4.0872    1.7388 C   0  0  0  0  0  0  0  0  0  0  0  0
    0.6677   -0.5045   -3.2485 C   0  0  0  0  0  0  0  0  0  0  0  0
    0.3195    0.2456   -0.9869 C   0  0  0  0  0  0  0  0  0  0  0  0
   -0.1268    0.7019   -3.7407 C   0  0  0  0  0  0  0  0  0  0  0  0
   -0.4677    1.4336   -1.5324 C   0  0  0  0  0  0  0  0  0  0  0  0
    0.9621   -2.0406   -1.4116 C   0  0  0  0  0  0  0  0  0  0  0  0
   -1.8311   -4.7999    2.8336 C   0  0  0  0  0  0  0  0  0  0  0  0
    0.2058   -0.8932   -1.9086 N   0  0  0  0  0  0  0  0  0  0  0  0
   -2.8976   -4.0092    3.3935 N   0  0  0  0  0  0  0  0  0  0  0  0
    0.0096    1.7929   -2.8294 O   0  0  0  0  0  0  0  0  0  0  0  0
    1.8095   -2.4581    1.1416 H   0  0  0  0  0  0  0  0  0  0  0  0
   -1.4917   -3.2101   -1.5217 H   0  0  0  0  0  0  0  0  0  0  0  0
    0.6187   -3.6358    2.9504 H   0  0  0  0  0  0  0  0  0  0  0  0
   -2.6843   -4.3852    0.2889 H   0  0  0  0  0  0  0  0  0  0  0  0
    0.5306   -1.3327   -3.9530 H   0  0  0  0  0  0  0  0  0  0  0  0
    1.7358   -0.2521   -3.2236 H   0  0  0  0  0  0  0  0  0  0  0  0
    1.3725    0.5312   -0.8637 H   0  0  0  0  0  0  0  0  0  0  0  0
   -0.0775   -0.0223   -0.0011 H   0  0  0  0  0  0  0  0  0  0  0  0
    0.2572    1.0299   -4.7119 H   0  0  0  0  0  0  0  0  0  0  0  0
   -1.1895    0.4619   -3.8681 H   0  0  0  0  0  0  0  0  0  0  0  0
   -1.5419    1.2179   -1.5841 H   0  0  0  0  0  0  0  0  0  0  0  0
   -0.3354    2.3007   -0.8774 H   0  0  0  0  0  0  0  0  0  0  0  0
    1.9348   -1.6776   -1.0620 H   0  0  0  0  0  0  0  0  0  0  0  0
    1.1498   -2.7099   -2.2578 H   0  0  0  0  0  0  0  0  0  0  0  0
   -2.2718   -5.7395    2.4719 H   0  0  0  0  0  0  0  0  0  0  0  0
   -1.1526   -5.0641    3.6564 H   0  0  0  0  0  0  0  0  0  0  0  0
   -3.1875   -4.1814    4.3416 H   0  0  0  0  0  0  0  0  0  0  0  0
   -3.4651   -3.4496    2.7792 H   0  0  0  0  0  0  0  0  0  0  0  0
  1  3  1  0  0  0  0
  1  5  2  0  0  0  0
  2  4  2  0  0  0  0
  2  5  1  0  0  0  0
  3  6  2  0  0  0  0
  4  6  1  0  0  0  0
  5 11  1  0  0  0  0
  6 12  1  0  0  0  0
  7  9  1  0  0  0  0
  7 13  1  0  0  0  0
  8 10  1  0  0  0  0
  8 13  1  0  0  0  0
  9 15  1  0  0  0  0
 10 15  1  0  0  0  0
 11 13  1  0  0  0  0
 12 14  1  0  0  0  0
  1 16  1  0  0  0  0
  2 17  1  0  0  0  0
  3 18  1  0  0  0  0
  4 19  1  0  0  0  0
  7 20  1  0  0  0  0
  7 21  1  0  0  0  0
  8 22  1  0  0  0  0
  8 23  1  0  0  0  0
  9 24  1  0  0  0  0
  9 25  1  0  0  0  0
 10 26  1  0  0  0  0
 10 27  1  0  0  0  0
 11 28  1  0  0  0  0
 11 29  1  0  0  0  0
 12 30  1  0  0  0  0
 12 31  1  0  0  0  0
 14 32  1  0  0  0  0
 14 33  1  0  0  0  0
M  END
$$$$
frag.vs.370
  -OEChem-01121112263D

 24 25  0     0  0  0  0  0  0999 V2000
    1.8851   -1.0363   -0.1124 C   0  0  0  0  0  0  0  0  0  0  0  0
    2.8783   -1.6520    2.0022 C   0  0  0  0  0  0  0  0  0  0  0  0
    0.8066   -0.4630    0.5610 C   0  0  0  0  0  0  0  0  0  0  0  0
    1.7997   -1.0786    2.6757 C   0  0  0  0  0  0  0  0  0  0  0  0
   -1.6729    0.7933    4.1548 C   0  0  0  0  0  0  0  0  0  0  0  0
   -0.4773    0.1379    3.9775 C   0  0  0  0  0  0  0  0  0  0  0  0
   -1.3818    0.7006    2.0483 C   0  0  0  0  0  0  0  0  0  0  0  0
    2.9210   -1.6309    0.6081 C   0  0  0  0  0  0  0  0  0  0  0  0
    0.7638   -0.4841    1.9551 C   0  0  0  0  0  0  0  0  0  0  0  0
    4.0458   -2.2284   -0.0936 C   0  0  0  0  0  0  0  0  0  0  0  0
    3.7874   -2.8022   -1.4565 C   0  0  0  0  0  0  0  0  0  0  0  0
   -2.2311    1.1407    2.9501 N   0  0  0  0  0  0  0  0  0  0  0  0
   -0.3044    0.0857    2.6230 N   0  0  0  0  0  0  0  0  0  0  0  0
    5.1946   -2.3038    0.3476 O   0  0  0  0  0  0  0  0  0  0  0  0
    1.9083   -1.0139   -1.1990 H   0  0  0  0  0  0  0  0  0  0  0  0
    3.6798   -2.1131    2.5735 H   0  0  0  0  0  0  0  0  0  0  0  0
    0.0054   -0.0032   -0.0128 H   0  0  0  0  0  0  0  0  0  0  0  0
    1.7794   -1.1017    3.7626 H   0  0  0  0  0  0  0  0  0  0  0  0
   -2.1602    1.0323    5.0886 H   0  0  0  0  0  0  0  0  0  0  0  0
    0.2356   -0.2787    4.6762 H   0  0  0  0  0  0  0  0  0  0  0  0
   -1.4967    0.7989    0.9767 H   0  0  0  0  0  0  0  0  0  0  0  0
    3.9246   -2.0814   -2.2781 H   0  0  0  0  0  0  0  0  0  0  0  0
    2.7798   -3.2338   -1.5608 H   0  0  0  0  0  0  0  0  0  0  0  0
    4.4704   -3.6302   -1.7173 H   0  0  0  0  0  0  0  0  0  0  0  0
  1  3  2  0  0  0  0
  1  8  1  0  0  0  0
  2  4  1  0  0  0  0
  2  8  2  0  0  0  0
  3  9  1  0  0  0  0
  4  9  2  0  0  0  0
  5  6  2  0  0  0  0
  5 12  1  0  0  0  0
  6 13  1  0  0  0  0
  7 12  2  0  0  0  0
  7 13  1  0  0  0  0
  8 10  1  0  0  0  0
  9 13  1  0  0  0  0
 10 11  1  0  0  0  0
 10 14  2  0  0  0  0
  1 15  1  0  0  0  0
  2 16  1  0  0  0  0
  3 17  1  0  0  0  0
  4 18  1  0  0  0  0
  5 19  1  0  0  0  0
  6 20  1  0  0  0  0
  7 21  1  0  0  0  0
 11 22  1  0  0  0  0
 11 23  1  0  0  0  0
 11 24  1  0  0  0  0
M  END
$$$$
frag.vs.371
  -OEChem-01121112263D

 27 28  0     0  0  0  0  0  0999 V2000
    1.9324   -3.8014    1.3964 C   0  0  0  0  0  0  0  0  0  0  0  0
    1.7043   -5.9229    0.2632 C   0  0  0  0  0  0  0  0  0  0  0  0
    0.7332   -4.0324    2.0703 C   0  0  0  0  0  0  0  0  0  0  0  0
    0.5051   -6.1540    0.9371 C   0  0  0  0  0  0  0  0  0  0  0  0
   -3.0220   -6.3091    3.2358 C   0  0  0  0  0  0  0  0  0  0  0  0
   -1.9688   -6.5393    2.3824 C   0  0  0  0  0  0  0  0  0  0  0  0
   -1.7608   -4.6040    3.4158 C   0  0  0  0  0  0  0  0  0  0  0  0
    2.4179   -4.7466    0.4928 C   0  0  0  0  0  0  0  0  0  0  0  0
    0.0196   -5.2087    1.8407 C   0  0  0  0  0  0  0  0  0  0  0  0
    4.8242   -3.2997   -1.9763 C   0  0  0  0  0  0  0  0  0  0  0  0
    3.7001   -4.4997   -0.2278 C   0  0  0  0  0  0  0  0  0  0  0  0
   -2.8867   -5.1026    3.8758 N   0  0  0  0  0  0  0  0  0  0  0  0
   -1.1695   -5.4382    2.5082 N   0  0  0  0  0  0  0  0  0  0  0  0
    3.5553   -3.5358   -1.2890 N   0  0  0  0  0  0  0  0  0  0  0  0
    2.4823   -2.8824    1.5810 H   0  0  0  0  0  0  0  0  0  0  0  0
    2.0749   -6.6648   -0.4392 H   0  0  0  0  0  0  0  0  0  0  0  0
    0.3655   -3.2871    2.7715 H   0  0  0  0  0  0  0  0  0  0  0  0
   -0.0407   -7.0752    0.7480 H   0  0  0  0  0  0  0  0  0  0  0  0
   -3.8708   -6.9507    3.4216 H   0  0  0  0  0  0  0  0  0  0  0  0
   -1.7326   -7.3632    1.7227 H   0  0  0  0  0  0  0  0  0  0  0  0
   -1.3319   -3.6526    3.7023 H   0  0  0  0  0  0  0  0  0  0  0  0
    5.5750   -2.9423   -1.2667 H   0  0  0  0  0  0  0  0  0  0  0  0
    4.6953   -2.5486   -2.7604 H   0  0  0  0  0  0  0  0  0  0  0  0
    5.1845   -4.2252   -2.4334 H   0  0  0  0  0  0  0  0  0  0  0  0
    4.4730   -4.1230    0.4568 H   0  0  0  0  0  0  0  0  0  0  0  0
    4.0952   -5.4222   -0.6751 H   0  0  0  0  0  0  0  0  0  0  0  0
    2.8712   -3.8693   -1.9755 H   0  0  0  0  0  0  0  0  0  0  0  0
  1  3  2  0  0  0  0
  1  8  1  0  0  0  0
  2  4  1  0  0  0  0
  2  8  2  0  0  0  0
  3  9  1  0  0  0  0
  4  9  2  0  0  0  0
  5  6  2  0  0  0  0
  5 12  1  0  0  0  0
  6 13  1  0  0  0  0
  7 12  2  0  0  0  0
  7 13  1  0  0  0  0
  8 11  1  0  0  0  0
  9 13  1  0  0  0  0
 10 14  1  0  0  0  0
 11 14  1  0  0  0  0
  1 15  1  0  0  0  0
  2 16  1  0  0  0  0
  3 17  1  0  0  0  0
  4 18  1  0  0  0  0
  5 19  1  0  0  0  0
  6 20  1  0  0  0  0
  7 21  1  0  0  0  0
 10 22  1  0  0  0  0
 10 23  1  0  0  0  0
 10 24  1  0  0  0  0
 11 25  1  0  0  0  0
 11 26  1  0  0  0  0
 14 27  1  0  0  0  0
M  END
$$$$
frag.vs.372
  -OEChem-01121112263D

 23 24  0     0  0  0  0  0  0999 V2000
    1.8851   -1.0363   -0.1124 C   0  0  0  0  0  0  0  0  0  0  0  0
    2.8783   -1.6520    2.0022 C   0  0  0  0  0  0  0  0  0  0  0  0
    0.8066   -0.4630    0.5610 C   0  0  0  0  0  0  0  0  0  0  0  0
    1.7997   -1.0786    2.6757 C   0  0  0  0  0  0  0  0  0  0  0  0
   -1.6748    0.7888    4.1554 C   0  0  0  0  0  0  0  0  0  0  0  0
   -0.4780    0.1355    3.9778 C   0  0  0  0  0  0  0  0  0  0  0  0
   -1.3839    0.6968    2.0489 C   0  0  0  0  0  0  0  0  0  0  0  0
    2.9210   -1.6309    0.6081 C   0  0  0  0  0  0  0  0  0  0  0  0
    0.7638   -0.4841    1.9551 C   0  0  0  0  0  0  0  0  0  0  0  0
    4.0742   -2.2438   -0.1119 C   0  0  0  0  0  0  0  0  0  0  0  0
   -2.2338    1.1352    2.9508 N   0  0  0  0  0  0  0  0  0  0  0  0
   -0.3053    0.0837    2.6233 N   0  0  0  0  0  0  0  0  0  0  0  0
    3.6719   -3.4850   -0.6782 O   0  0  0  0  0  0  0  0  0  0  0  0
    1.9108   -1.0156   -1.1987 H   0  0  0  0  0  0  0  0  0  0  0  0
    3.6807   -2.1132    2.5718 H   0  0  0  0  0  0  0  0  0  0  0  0
    0.0052   -0.0035   -0.0127 H   0  0  0  0  0  0  0  0  0  0  0  0
    1.7795   -1.1027    3.7626 H   0  0  0  0  0  0  0  0  0  0  0  0
   -2.1623    1.0268    5.0894 H   0  0  0  0  0  0  0  0  0  0  0  0
    0.2357   -0.2798    4.6763 H   0  0  0  0  0  0  0  0  0  0  0  0
   -1.4993    0.7949    0.9773 H   0  0  0  0  0  0  0  0  0  0  0  0
    4.4362   -1.5912   -0.9181 H   0  0  0  0  0  0  0  0  0  0  0  0
    4.9173   -2.4235    0.5693 H   0  0  0  0  0  0  0  0  0  0  0  0
    4.4477   -3.8479   -1.1348 H   0  0  0  0  0  0  0  0  0  0  0  0
  1  3  1  0  0  0  0
  1  8  2  0  0  0  0
  2  4  2  0  0  0  0
  2  8  1  0  0  0  0
  3  9  2  0  0  0  0
  4  9  1  0  0  0  0
  5  6  2  0  0  0  0
  5 11  1  0  0  0  0
  6 12  1  0  0  0  0
  7 11  2  0  0  0  0
  7 12  1  0  0  0  0
  8 10  1  0  0  0  0
  9 12  1  0  0  0  0
 10 13  1  0  0  0  0
  1 14  1  0  0  0  0
  2 15  1  0  0  0  0
  3 16  1  0  0  0  0
  4 17  1  0  0  0  0
  5 18  1  0  0  0  0
  6 19  1  0  0  0  0
  7 20  1  0  0  0  0
 10 21  1  0  0  0  0
 10 22  1  0  0  0  0
 13 23  1  0  0  0  0
M  END
$$$$
frag.vs.373
  -OEChem-01121112263D

 20 21  0     0  0  0  0  0  0999 V2000
    1.8851   -1.0363   -0.1124 C   0  0  0  0  0  0  0  0  0  0  0  0
    2.8783   -1.6520    2.0022 C   0  0  0  0  0  0  0  0  0  0  0  0
    0.8066   -0.4630    0.5610 C   0  0  0  0  0  0  0  0  0  0  0  0
    1.7997   -1.0786    2.6757 C   0  0  0  0  0  0  0  0  0  0  0  0
    5.3601   -2.9059   -1.5907 C   0  0  0  0  0  0  0  0  0  0  0  0
    4.1640   -2.2512   -1.4139 C   0  0  0  0  0  0  0  0  0  0  0  0
    5.0688   -2.8123    0.5157 C   0  0  0  0  0  0  0  0  0  0  0  0
    2.9210   -1.6309    0.6081 C   0  0  0  0  0  0  0  0  0  0  0  0
    0.7638   -0.4841    1.9551 C   0  0  0  0  0  0  0  0  0  0  0  0
    5.9181   -3.2528   -0.3858 N   0  0  0  0  0  0  0  0  0  0  0  0
    3.9905   -2.1992   -0.0595 N   0  0  0  0  0  0  0  0  0  0  0  0
   -0.2879    0.0758    2.6129 O   0  0  0  0  0  0  0  0  0  0  0  0
    1.9055   -1.0130   -1.1994 H   0  0  0  0  0  0  0  0  0  0  0  0
    3.6788   -2.1127    2.5760 H   0  0  0  0  0  0  0  0  0  0  0  0
    0.0025   -0.0011   -0.0055 H   0  0  0  0  0  0  0  0  0  0  0  0
    1.7730   -1.0981    3.7618 H   0  0  0  0  0  0  0  0  0  0  0  0
    5.8475   -3.1453   -2.5244 H   0  0  0  0  0  0  0  0  0  0  0  0
    3.4512   -1.8350   -2.1128 H   0  0  0  0  0  0  0  0  0  0  0  0
    5.1836   -2.9100    1.5873 H   0  0  0  0  0  0  0  0  0  0  0  0
   -0.9223    0.4467    1.9790 H   0  0  0  0  0  0  0  0  0  0  0  0
  1  3  1  0  0  0  0
  1  8  2  0  0  0  0
  2  4  2  0  0  0  0
  2  8  1  0  0  0  0
  3  9  2  0  0  0  0
  4  9  1  0  0  0  0
  5  6  2  0  0  0  0
  5 10  1  0  0  0  0
  6 11  1  0  0  0  0
  7 10  2  0  0  0  0
  7 11  1  0  0  0  0
  8 11  1  0  0  0  0
  9 12  1  0  0  0  0
  1 13  1  0  0  0  0
  2 14  1  0  0  0  0
  3 15  1  0  0  0  0
  4 16  1  0  0  0  0
  5 17  1  0  0  0  0
  6 18  1  0  0  0  0
  7 19  1  0  0  0  0
 12 20  1  0  0  0  0
M  END
$$$$
frag.vs.374
  -OEChem-01121112263D

 28 29  0     0  0  0  0  0  0999 V2000
    1.8851   -1.0363   -0.1124 C   0  0  0  0  0  0  0  0  0  0  0  0
    2.8783   -1.6520    2.0022 C   0  0  0  0  0  0  0  0  0  0  0  0
    0.8066   -0.4630    0.5610 C   0  0  0  0  0  0  0  0  0  0  0  0
    1.7997   -1.0786    2.6757 C   0  0  0  0  0  0  0  0  0  0  0  0
   -2.2550   -2.4358    4.3872 C   0  0  0  0  0  0  0  0  0  0  0  0
   -1.1350   -1.6414    4.3172 C   0  0  0  0  0  0  0  0  0  0  0  0
   -2.5105   -1.2448    2.6418 C   0  0  0  0  0  0  0  0  0  0  0  0
    2.9210   -1.6309    0.6081 C   0  0  0  0  0  0  0  0  0  0  0  0
    0.7638   -0.4841    1.9551 C   0  0  0  0  0  0  0  0  0  0  0  0
    4.0464   -2.2285   -0.0930 C   0  0  0  0  0  0  0  0  0  0  0  0
    6.1162   -3.3764    0.2070 C   0  0  0  0  0  0  0  0  0  0  0  0
   -0.3892    0.1300    2.6748 C   0  0  0  0  0  0  0  0  0  0  0  0
   -3.1072   -2.1843    3.3412 N   0  0  0  0  0  0  0  0  0  0  0  0
   -1.3128   -0.8842    3.1937 N   0  0  0  0  0  0  0  0  0  0  0  0
    4.1692   -2.2562   -1.3247 O   0  0  0  0  0  0  0  0  0  0  0  0
    4.9583   -2.7582    0.7786 O   0  0  0  0  0  0  0  0  0  0  0  0
    1.9089   -1.0145   -1.1989 H   0  0  0  0  0  0  0  0  0  0  0  0
    3.6797   -2.1125    2.5740 H   0  0  0  0  0  0  0  0  0  0  0  0
    0.0041   -0.0017   -0.0084 H   0  0  0  0  0  0  0  0  0  0  0  0
    1.7748   -1.0992    3.7621 H   0  0  0  0  0  0  0  0  0  0  0  0
   -2.4910   -3.1762    5.1376 H   0  0  0  0  0  0  0  0  0  0  0  0
   -0.2601   -1.5532    4.9461 H   0  0  0  0  0  0  0  0  0  0  0  0
   -2.8928   -0.7921    1.7370 H   0  0  0  0  0  0  0  0  0  0  0  0
    6.7591   -3.7558    1.0050 H   0  0  0  0  0  0  0  0  0  0  0  0
    6.6598   -2.6456   -0.3970 H   0  0  0  0  0  0  0  0  0  0  0  0
    5.7988   -4.2070   -0.4280 H   0  0  0  0  0  0  0  0  0  0  0  0
   -0.0590    0.7469    3.5257 H   0  0  0  0  0  0  0  0  0  0  0  0
   -0.9671    0.8039    2.0224 H   0  0  0  0  0  0  0  0  0  0  0  0
  1  3  2  0  0  0  0
  1  8  1  0  0  0  0
  2  4  1  0  0  0  0
  2  8  2  0  0  0  0
  3  9  1  0  0  0  0
  4  9  2  0  0  0  0
  5  6  2  0  0  0  0
  5 13  1  0  0  0  0
  6 14  1  0  0  0  0
  7 13  2  0  0  0  0
  7 14  1  0  0  0  0
  8 10  1  0  0  0  0
  9 12  1  0  0  0  0
 10 15  2  0  0  0  0
 10 16  1  0  0  0  0
 11 16  1  0  0  0  0
 12 14  1  0  0  0  0
  1 17  1  0  0  0  0
  2 18  1  0  0  0  0
  3 19  1  0  0  0  0
  4 20  1  0  0  0  0
  5 21  1  0  0  0  0
  6 22  1  0  0  0  0
  7 23  1  0  0  0  0
 11 24  1  0  0  0  0
 11 25  1  0  0  0  0
 11 26  1  0  0  0  0
 12 27  1  0  0  0  0
 12 28  1  0  0  0  0
M  END
$$$$
frag.vs.375
  -OEChem-01121112263D

 24 25  0     0  0  0  0  0  0999 V2000
    1.8851   -1.0363   -0.1124 C   0  0  0  0  0  0  0  0  0  0  0  0
    2.8783   -1.6520    2.0022 C   0  0  0  0  0  0  0  0  0  0  0  0
    0.8066   -0.4630    0.5610 C   0  0  0  0  0  0  0  0  0  0  0  0
    1.7997   -1.0786    2.6757 C   0  0  0  0  0  0  0  0  0  0  0  0
    2.9460   -5.1024   -1.9969 C   0  0  0  0  0  0  0  0  0  0  0  0
    3.0190   -3.7365   -1.8581 C   0  0  0  0  0  0  0  0  0  0  0  0
    4.0414   -4.7708   -0.2023 C   0  0  0  0  0  0  0  0  0  0  0  0
    2.9210   -1.6309    0.6081 C   0  0  0  0  0  0  0  0  0  0  0  0
    0.7638   -0.4841    1.9551 C   0  0  0  0  0  0  0  0  0  0  0  0
    4.0744   -2.2445   -0.1110 C   0  0  0  0  0  0  0  0  0  0  0  0
    3.5841   -5.7405   -0.9629 N   0  0  0  0  0  0  0  0  0  0  0  0
    3.7232   -3.5393   -0.7037 N   0  0  0  0  0  0  0  0  0  0  0  0
   -0.3256    0.0971    2.6364 N   0  0  0  0  0  0  0  0  0  0  0  0
    1.9098   -1.0163   -1.1986 H   0  0  0  0  0  0  0  0  0  0  0  0
    3.6798   -2.1144    2.5719 H   0  0  0  0  0  0  0  0  0  0  0  0
    0.0040   -0.0036   -0.0102 H   0  0  0  0  0  0  0  0  0  0  0  0
    1.7764   -1.1014    3.7621 H   0  0  0  0  0  0  0  0  0  0  0  0
    2.4664   -5.6589   -2.7889 H   0  0  0  0  0  0  0  0  0  0  0  0
    2.6446   -2.9190   -2.4583 H   0  0  0  0  0  0  0  0  0  0  0  0
    4.6031   -4.8976    0.7131 H   0  0  0  0  0  0  0  0  0  0  0  0
    4.4435   -1.5960   -0.9216 H   0  0  0  0  0  0  0  0  0  0  0  0
    4.9346   -2.4071    0.5579 H   0  0  0  0  0  0  0  0  0  0  0  0
   -1.0376    0.5627    2.1108 H   0  0  0  0  0  0  0  0  0  0  0  0
   -0.3211    0.1169    3.6362 H   0  0  0  0  0  0  0  0  0  0  0  0
  1  3  1  0  0  0  0
  1  8  2  0  0  0  0
  2  4  2  0  0  0  0
  2  8  1  0  0  0  0
  3  9  2  0  0  0  0
  4  9  1  0  0  0  0
  5  6  2  0  0  0  0
  5 11  1  0  0  0  0
  6 12  1  0  0  0  0
  7 11  2  0  0  0  0
  7 12  1  0  0  0  0
  8 10  1  0  0  0  0
  9 13  1  0  0  0  0
 10 12  1  0  0  0  0
  1 14  1  0  0  0  0
  2 15  1  0  0  0  0
  3 16  1  0  0  0  0
  4 17  1  0  0  0  0
  5 18  1  0  0  0  0
  6 19  1  0  0  0  0
  7 20  1  0  0  0  0
 10 21  1  0  0  0  0
 10 22  1  0  0  0  0
 13 23  1  0  0  0  0
 13 24  1  0  0  0  0
M  END
$$$$
frag.vs.376
  -OEChem-01121112263D

 24 25  0     0  0  0  0  0  0999 V2000
    1.8851   -1.0363   -0.1124 C   0  0  0  0  0  0  0  0  0  0  0  0
    0.8066   -0.4630    0.5610 C   0  0  0  0  0  0  0  0  0  0  0  0
    2.9210   -1.6309    0.6081 C   0  0  0  0  0  0  0  0  0  0  0  0
    1.7997   -1.0786    2.6757 C   0  0  0  0  0  0  0  0  0  0  0  0
   -2.2545   -2.4365    4.3876 C   0  0  0  0  0  0  0  0  0  0  0  0
   -1.1347   -1.6417    4.3175 C   0  0  0  0  0  0  0  0  0  0  0  0
   -2.5102   -1.2459    2.6418 C   0  0  0  0  0  0  0  0  0  0  0  0
    0.7638   -0.4841    1.9551 C   0  0  0  0  0  0  0  0  0  0  0  0
    2.8783   -1.6520    2.0022 C   0  0  0  0  0  0  0  0  0  0  0  0
   -0.3891    0.1295    2.6747 C   0  0  0  0  0  0  0  0  0  0  0  0
   -3.1067   -2.1854    3.3414 N   0  0  0  0  0  0  0  0  0  0  0  0
   -1.3126   -0.8849    3.1938 N   0  0  0  0  0  0  0  0  0  0  0  0
    3.9255   -2.2535    2.7307 N   0  0  0  0  0  0  0  0  0  0  0  0
    1.9183   -1.0199   -1.1981 H   0  0  0  0  0  0  0  0  0  0  0  0
    0.0037   -0.0019   -0.0086 H   0  0  0  0  0  0  0  0  0  0  0  0
    3.7566   -2.0749    0.0732 H   0  0  0  0  0  0  0  0  0  0  0  0
    1.7647   -1.0945    3.7626 H   0  0  0  0  0  0  0  0  0  0  0  0
   -2.4904   -3.1767    5.1381 H   0  0  0  0  0  0  0  0  0  0  0  0
   -0.2599   -1.5532    4.9465 H   0  0  0  0  0  0  0  0  0  0  0  0
   -2.8924   -0.7935    1.7369 H   0  0  0  0  0  0  0  0  0  0  0  0
   -0.0593    0.7466    3.5258 H   0  0  0  0  0  0  0  0  0  0  0  0
   -0.9675    0.8034    2.0225 H   0  0  0  0  0  0  0  0  0  0  0  0
    4.6691   -2.7027    2.2355 H   0  0  0  0  0  0  0  0  0  0  0  0
    3.8601   -2.3038    3.7273 H   0  0  0  0  0  0  0  0  0  0  0  0
  1  2  1  0  0  0  0
  1  3  2  0  0  0  0
  2  8  2  0  0  0  0
  3  9  1  0  0  0  0
  4  8  1  0  0  0  0
  4  9  2  0  0  0  0
  5  6  2  0  0  0  0
  5 11  1  0  0  0  0
  6 12  1  0  0  0  0
  7 11  2  0  0  0  0
  7 12  1  0  0  0  0
  8 10  1  0  0  0  0
  9 13  1  0  0  0  0
 10 12  1  0  0  0  0
  1 14  1  0  0  0  0
  2 15  1  0  0  0  0
  3 16  1  0  0  0  0
  4 17  1  0  0  0  0
  5 18  1  0  0  0  0
  6 19  1  0  0  0  0
  7 20  1  0  0  0  0
 10 21  1  0  0  0  0
 10 22  1  0  0  0  0
 13 23  1  0  0  0  0
 13 24  1  0  0  0  0
M  END
$$$$
frag.vs.377
  -OEChem-01121112263D

 29 30  0     0  0  0  0  0  0999 V2000
    1.8872   -1.0352   -0.1124 C   0  0  0  0  0  0  0  0  0  0  0  0
    2.2875    0.0853    0.6155 C   0  0  0  0  0  0  0  0  0  0  0  0
    1.4430   -2.1775    0.5538 C   0  0  0  0  0  0  0  0  0  0  0  0
    2.2438    0.0636    2.0095 C   0  0  0  0  0  0  0  0  0  0  0  0
    1.3993   -2.1992    1.9478 C   0  0  0  0  0  0  0  0  0  0  0  0
    1.2979   -0.6558    6.1466 C   0  0  0  0  0  0  0  0  0  0  0  0
    1.7997   -1.0786    2.6757 C   0  0  0  0  0  0  0  0  0  0  0  0
    2.1928   -1.7339    6.0101 C   0  0  0  0  0  0  0  0  0  0  0  0
    1.0327   -0.2643    4.8571 C   0  0  0  0  0  0  0  0  0  0  0  0
    2.8074   -2.5384    7.0805 C   0  0  0  0  0  0  0  0  0  0  0  0
    0.1679    0.8130    4.3340 C   0  0  0  0  0  0  0  0  0  0  0  0
    0.7631   -0.0753    7.3909 C   0  0  0  0  0  0  0  0  0  0  0  0
    2.4771   -2.0097    4.7345 N   0  0  0  0  0  0  0  0  0  0  0  0
    1.7565   -1.0993    4.0577 N   0  0  0  0  0  0  0  0  0  0  0  0
   -0.2342   -0.9353    7.9440 O   0  0  0  0  0  0  0  0  0  0  0  0
    1.9193   -1.0183   -1.1978 H   0  0  0  0  0  0  0  0  0  0  0  0
    2.6322    0.9752    0.0970 H   0  0  0  0  0  0  0  0  0  0  0  0
    1.1300   -3.0491   -0.0137 H   0  0  0  0  0  0  0  0  0  0  0  0
    2.5580    0.9441    2.5647 H   0  0  0  0  0  0  0  0  0  0  0  0
    1.0502   -3.0957    2.4544 H   0  0  0  0  0  0  0  0  0  0  0  0
    2.1814   -3.4105    7.3351 H   0  0  0  0  0  0  0  0  0  0  0  0
    3.8054   -2.9166    6.7965 H   0  0  0  0  0  0  0  0  0  0  0  0
    2.9576   -1.9548    8.0062 H   0  0  0  0  0  0  0  0  0  0  0  0
    0.7288    1.7557    4.2292 H   0  0  0  0  0  0  0  0  0  0  0  0
   -0.2535    0.5611    3.3463 H   0  0  0  0  0  0  0  0  0  0  0  0
   -0.6947    1.0066    4.9938 H   0  0  0  0  0  0  0  0  0  0  0  0
    1.5473    0.0694    8.1563 H   0  0  0  0  0  0  0  0  0  0  0  0
    0.3029    0.9152    7.2221 H   0  0  0  0  0  0  0  0  0  0  0  0
   -0.5468   -0.5052    8.7540 H   0  0  0  0  0  0  0  0  0  0  0  0
  1  2  1  0  0  0  0
  1  3  2  0  0  0  0
  2  4  2  0  0  0  0
  3  5  1  0  0  0  0
  4  7  1  0  0  0  0
  5  7  2  0  0  0  0
  6  8  1  0  0  0  0
  6  9  2  0  0  0  0
  6 12  1  0  0  0  0
  7 14  1  0  0  0  0
  8 10  1  0  0  0  0
  8 13  2  0  0  0  0
  9 11  1  0  0  0  0
  9 14  1  0  0  0  0
 12 15  1  0  0  0  0
 13 14  1  0  0  0  0
  1 16  1  0  0  0  0
  2 17  1  0  0  0  0
  3 18  1  0  0  0  0
  4 19  1  0  0  0  0
  5 20  1  0  0  0  0
 10 21  1  0  0  0  0
 10 22  1  0  0  0  0
 10 23  1  0  0  0  0
 11 24  1  0  0  0  0
 11 25  1  0  0  0  0
 11 26  1  0  0  0  0
 12 27  1  0  0  0  0
 12 28  1  0  0  0  0
 15 29  1  0  0  0  0
M  END
$$$$
frag.vs.378
  -OEChem-01121112263D

 25 26  0     0  0  0  0  0  0999 V2000
    1.8874   -1.0353   -0.1124 C   0  0  0  0  0  0  0  0  0  0  0  0
    2.4192    0.0269    0.6187 C   0  0  0  0  0  0  0  0  0  0  0  0
    1.3116   -2.1192    0.5506 C   0  0  0  0  0  0  0  0  0  0  0  0
    2.3754    0.0052    2.0127 C   0  0  0  0  0  0  0  0  0  0  0  0
    1.2678   -2.1408    1.9446 C   0  0  0  0  0  0  0  0  0  0  0  0
    1.7997   -1.0786    2.6757 C   0  0  0  0  0  0  0  0  0  0  0  0
    2.0165   -0.5058    6.0193 C   0  0  0  0  0  0  0  0  0  0  0  0
    1.3744   -1.7514    5.9803 C   0  0  0  0  0  0  0  0  0  0  0  0
    2.3951    0.2855    7.1522 C   0  0  0  0  0  0  0  0  0  0  0  0
    0.9103   -2.5988    7.0878 C   0  0  0  0  0  0  0  0  0  0  0  0
    2.2641   -0.0846    4.7759 N   0  0  0  0  0  0  0  0  0  0  0  0
    1.2058   -2.1346    4.7117 N   0  0  0  0  0  0  0  0  0  0  0  0
    1.7565   -1.0993    4.0577 N   0  0  0  0  0  0  0  0  0  0  0  0
    3.0346    1.5127    6.9274 N   0  0  0  0  0  0  0  0  0  0  0  0
    2.1883   -0.0908    8.3313 O   0  0  0  0  0  0  0  0  0  0  0  0
    1.9196   -1.0181   -1.1977 H   0  0  0  0  0  0  0  0  0  0  0  0
    2.8663    0.8715    0.1027 H   0  0  0  0  0  0  0  0  0  0  0  0
    0.8964   -2.9453   -0.0195 H   0  0  0  0  0  0  0  0  0  0  0  0
    2.7929    0.8400    2.5705 H   0  0  0  0  0  0  0  0  0  0  0  0
    0.8154   -2.9915    2.4486 H   0  0  0  0  0  0  0  0  0  0  0  0
   -0.1307   -2.3600    7.3700 H   0  0  0  0  0  0  0  0  0  0  0  0
    0.9451   -3.6751    6.8365 H   0  0  0  0  0  0  0  0  0  0  0  0
    1.5326   -2.4831    7.9947 H   0  0  0  0  0  0  0  0  0  0  0  0
    3.2111    1.8056    5.9725 H   0  0  0  0  0  0  0  0  0  0  0  0
    3.3271    2.1180    7.6878 H   0  0  0  0  0  0  0  0  0  0  0  0
  1  2  1  0  0  0  0
  1  3  2  0  0  0  0
  2  4  2  0  0  0  0
  3  5  1  0  0  0  0
  4  6  1  0  0  0  0
  5  6  2  0  0  0  0
  6 13  1  0  0  0  0
  7  8  1  0  0  0  0
  7  9  1  0  0  0  0
  7 11  2  0  0  0  0
  8 10  1  0  0  0  0
  8 12  2  0  0  0  0
  9 14  1  0  0  0  0
  9 15  2  0  0  0  0
 11 13  1  0  0  0  0
 12 13  1  0  0  0  0
  1 16  1  0  0  0  0
  2 17  1  0  0  0  0
  3 18  1  0  0  0  0
  4 19  1  0  0  0  0
  5 20  1  0  0  0  0
 10 21  1  0  0  0  0
 10 22  1  0  0  0  0
 10 23  1  0  0  0  0
 14 24  1  0  0  0  0
 14 25  1  0  0  0  0
M  END
$$$$
frag.vs.379
  -OEChem-01121112263D

 24 25  0     0  0  0  0  0  0999 V2000
    1.8874   -1.0353   -0.1124 C   0  0  0  0  0  0  0  0  0  0  0  0
    2.4192    0.0269    0.6187 C   0  0  0  0  0  0  0  0  0  0  0  0
    1.3116   -2.1192    0.5506 C   0  0  0  0  0  0  0  0  0  0  0  0
    2.3754    0.0052    2.0127 C   0  0  0  0  0  0  0  0  0  0  0  0
    1.2678   -2.1408    1.9446 C   0  0  0  0  0  0  0  0  0  0  0  0
    1.7997   -1.0786    2.6757 C   0  0  0  0  0  0  0  0  0  0  0  0
    2.0165   -0.5058    6.0193 C   0  0  0  0  0  0  0  0  0  0  0  0
    1.3744   -1.7514    5.9803 C   0  0  0  0  0  0  0  0  0  0  0  0
    2.3951    0.2855    7.1522 C   0  0  0  0  0  0  0  0  0  0  0  0
    0.9103   -2.5988    7.0878 C   0  0  0  0  0  0  0  0  0  0  0  0
    2.2641   -0.0846    4.7759 N   0  0  0  0  0  0  0  0  0  0  0  0
    1.2058   -2.1346    4.7117 N   0  0  0  0  0  0  0  0  0  0  0  0
    1.7565   -1.0993    4.0577 N   0  0  0  0  0  0  0  0  0  0  0  0
    2.2119   -0.0079    8.3513 O   0  0  0  0  0  0  0  0  0  0  0  0
    3.0119    1.4599    6.8112 O   0  0  0  0  0  0  0  0  0  0  0  0
    1.9196   -1.0181   -1.1977 H   0  0  0  0  0  0  0  0  0  0  0  0
    2.8663    0.8715    0.1027 H   0  0  0  0  0  0  0  0  0  0  0  0
    0.8964   -2.9453   -0.0195 H   0  0  0  0  0  0  0  0  0  0  0  0
    2.7929    0.8400    2.5705 H   0  0  0  0  0  0  0  0  0  0  0  0
    0.8154   -2.9915    2.4486 H   0  0  0  0  0  0  0  0  0  0  0  0
   -0.1307   -2.3600    7.3700 H   0  0  0  0  0  0  0  0  0  0  0  0
    0.9451   -3.6751    6.8365 H   0  0  0  0  0  0  0  0  0  0  0  0
    1.5326   -2.4831    7.9947 H   0  0  0  0  0  0  0  0  0  0  0  0
    3.2760    2.0088    7.5802 H   0  0  0  0  0  0  0  0  0  0  0  0
  1  2  1  0  0  0  0
  1  3  2  0  0  0  0
  2  4  2  0  0  0  0
  3  5  1  0  0  0  0
  4  6  1  0  0  0  0
  5  6  2  0  0  0  0
  6 13  1  0  0  0  0
  7  8  1  0  0  0  0
  7  9  1  0  0  0  0
  7 11  2  0  0  0  0
  8 10  1  0  0  0  0
  8 12  2  0  0  0  0
  9 14  2  0  0  0  0
  9 15  1  0  0  0  0
 11 13  1  0  0  0  0
 12 13  1  0  0  0  0
  1 16  1  0  0  0  0
  2 17  1  0  0  0  0
  3 18  1  0  0  0  0
  4 19  1  0  0  0  0
  5 20  1  0  0  0  0
 10 21  1  0  0  0  0
 10 22  1  0  0  0  0
 10 23  1  0  0  0  0
 15 24  1  0  0  0  0
M  END
$$$$
frag.vs.380
  -OEChem-01121112263D

 26 27  0     0  0  0  0  0  0999 V2000
    1.8874   -1.0353   -0.1124 C   0  0  0  0  0  0  0  0  0  0  0  0
    2.4199    0.0265    0.6187 C   0  0  0  0  0  0  0  0  0  0  0  0
    1.3109   -2.1188    0.5506 C   0  0  0  0  0  0  0  0  0  0  0  0
    2.3761    0.0049    2.0127 C   0  0  0  0  0  0  0  0  0  0  0  0
    1.2671   -2.1405    1.9446 C   0  0  0  0  0  0  0  0  0  0  0  0
    1.7997   -1.0786    2.6757 C   0  0  0  0  0  0  0  0  0  0  0  0
    2.0158   -0.5027    6.0185 C   0  0  0  0  0  0  0  0  0  0  0  0
    1.3717   -1.7473    5.9812 C   0  0  0  0  0  0  0  0  0  0  0  0
    2.4069    0.3100    7.1789 C   0  0  0  0  0  0  0  0  0  0  0  0
    0.9054   -2.5900    7.0912 C   0  0  0  0  0  0  0  0  0  0  0  0
    2.2652   -0.0841    4.7745 N   0  0  0  0  0  0  0  0  0  0  0  0
    1.2035   -2.1324    4.7131 N   0  0  0  0  0  0  0  0  0  0  0  0
    1.7565   -1.0993    4.0577 N   0  0  0  0  0  0  0  0  0  0  0  0
    1.9814   -3.2832    7.7711 N   0  0  0  0  0  0  0  0  0  0  0  0
    1.9196   -1.0181   -1.1977 H   0  0  0  0  0  0  0  0  0  0  0  0
    2.8676    0.8708    0.1028 H   0  0  0  0  0  0  0  0  0  0  0  0
    0.8951   -2.9446   -0.0195 H   0  0  0  0  0  0  0  0  0  0  0  0
    2.7942    0.8394    2.5705 H   0  0  0  0  0  0  0  0  0  0  0  0
    0.8142   -2.9908    2.4486 H   0  0  0  0  0  0  0  0  0  0  0  0
    3.4269    0.0602    7.5214 H   0  0  0  0  0  0  0  0  0  0  0  0
    2.3893    1.3934    6.9582 H   0  0  0  0  0  0  0  0  0  0  0  0
    1.7263    0.1689    8.0391 H   0  0  0  0  0  0  0  0  0  0  0  0
    0.3715   -2.0048    7.8645 H   0  0  0  0  0  0  0  0  0  0  0  0
    0.1924   -3.3700    6.7618 H   0  0  0  0  0  0  0  0  0  0  0  0
    1.7784   -4.1492    8.2328 H   0  0  0  0  0  0  0  0  0  0  0  0
    2.8389   -2.7919    7.9379 H   0  0  0  0  0  0  0  0  0  0  0  0
  1  2  1  0  0  0  0
  1  3  2  0  0  0  0
  2  4  2  0  0  0  0
  3  5  1  0  0  0  0
  4  6  1  0  0  0  0
  5  6  2  0  0  0  0
  6 13  1  0  0  0  0
  7  8  1  0  0  0  0
  7  9  1  0  0  0  0
  7 11  2  0  0  0  0
  8 10  1  0  0  0  0
  8 12  2  0  0  0  0
 10 14  1  0  0  0  0
 11 13  1  0  0  0  0
 12 13  1  0  0  0  0
  1 15  1  0  0  0  0
  2 16  1  0  0  0  0
  3 17  1  0  0  0  0
  4 18  1  0  0  0  0
  5 19  1  0  0  0  0
  9 20  1  0  0  0  0
  9 21  1  0  0  0  0
  9 22  1  0  0  0  0
 10 23  1  0  0  0  0
 10 24  1  0  0  0  0
 14 25  1  0  0  0  0
 14 26  1  0  0  0  0
M  END
$$$$
frag.vs.381
  -OEChem-01121112263D

 25 26  0     0  0  0  0  0  0999 V2000
    1.8874   -1.0353   -0.1124 C   0  0  0  0  0  0  0  0  0  0  0  0
    2.4199    0.0265    0.6187 C   0  0  0  0  0  0  0  0  0  0  0  0
    1.3109   -2.1188    0.5506 C   0  0  0  0  0  0  0  0  0  0  0  0
    2.3761    0.0049    2.0127 C   0  0  0  0  0  0  0  0  0  0  0  0
    1.2671   -2.1405    1.9446 C   0  0  0  0  0  0  0  0  0  0  0  0
    1.7997   -1.0786    2.6757 C   0  0  0  0  0  0  0  0  0  0  0  0
    2.0158   -0.5027    6.0185 C   0  0  0  0  0  0  0  0  0  0  0  0
    1.3717   -1.7473    5.9812 C   0  0  0  0  0  0  0  0  0  0  0  0
    2.4069    0.3100    7.1789 C   0  0  0  0  0  0  0  0  0  0  0  0
    0.9054   -2.5900    7.0912 C   0  0  0  0  0  0  0  0  0  0  0  0
    2.2652   -0.0841    4.7745 N   0  0  0  0  0  0  0  0  0  0  0  0
    1.2035   -2.1324    4.7131 N   0  0  0  0  0  0  0  0  0  0  0  0
    1.7565   -1.0993    4.0577 N   0  0  0  0  0  0  0  0  0  0  0  0
    2.0145   -3.2363    7.7208 O   0  0  0  0  0  0  0  0  0  0  0  0
    1.9196   -1.0181   -1.1977 H   0  0  0  0  0  0  0  0  0  0  0  0
    2.8676    0.8708    0.1028 H   0  0  0  0  0  0  0  0  0  0  0  0
    0.8951   -2.9446   -0.0195 H   0  0  0  0  0  0  0  0  0  0  0  0
    2.7942    0.8394    2.5705 H   0  0  0  0  0  0  0  0  0  0  0  0
    0.8142   -2.9908    2.4486 H   0  0  0  0  0  0  0  0  0  0  0  0
    3.4269    0.0602    7.5214 H   0  0  0  0  0  0  0  0  0  0  0  0
    2.3893    1.3934    6.9582 H   0  0  0  0  0  0  0  0  0  0  0  0
    1.7263    0.1689    8.0391 H   0  0  0  0  0  0  0  0  0  0  0  0
    0.3708   -2.0094    7.8671 H   0  0  0  0  0  0  0  0  0  0  0  0
    0.2037   -3.3764    6.7536 H   0  0  0  0  0  0  0  0  0  0  0  0
    1.6452   -3.7724    8.4379 H   0  0  0  0  0  0  0  0  0  0  0  0
  1  2  1  0  0  0  0
  1  3  2  0  0  0  0
  2  4  2  0  0  0  0
  3  5  1  0  0  0  0
  4  6  1  0  0  0  0
  5  6  2  0  0  0  0
  6 13  1  0  0  0  0
  7  8  1  0  0  0  0
  7  9  1  0  0  0  0
  7 11  2  0  0  0  0
  8 10  1  0  0  0  0
  8 12  2  0  0  0  0
 10 14  1  0  0  0  0
 11 13  1  0  0  0  0
 12 13  1  0  0  0  0
  1 15  1  0  0  0  0
  2 16  1  0  0  0  0
  3 17  1  0  0  0  0
  4 18  1  0  0  0  0
  5 19  1  0  0  0  0
  9 20  1  0  0  0  0
  9 21  1  0  0  0  0
  9 22  1  0  0  0  0
 10 23  1  0  0  0  0
 10 24  1  0  0  0  0
 14 25  1  0  0  0  0
M  END
$$$$
frag.vs.382
  -OEChem-01121112263D

 27 28  0     0  0  0  0  0  0999 V2000
    2.3154   -2.3129    1.6635 C   0  0  0  0  0  0  0  0  0  0  0  0
    2.4479   -0.3755    0.2262 C   0  0  0  0  0  0  0  0  0  0  0  0
    1.2369   -1.7396    2.3370 C   0  0  0  0  0  0  0  0  0  0  0  0
    1.3693    0.1979    0.8997 C   0  0  0  0  0  0  0  0  0  0  0  0
    5.2553   -3.5388   -1.2326 C   0  0  0  0  0  0  0  0  0  0  0  0
    2.9210   -1.6309    0.6081 C   0  0  0  0  0  0  0  0  0  0  0  0
    0.7638   -0.4842    1.9551 C   0  0  0  0  0  0  0  0  0  0  0  0
    5.9452   -2.3908   -0.7991 C   0  0  0  0  0  0  0  0  0  0  0  0
    3.9847   -3.3844   -0.7346 C   0  0  0  0  0  0  0  0  0  0  0  0
    7.3533   -2.0422   -1.0515 C   0  0  0  0  0  0  0  0  0  0  0  0
    2.7975   -4.2544   -0.8473 C   0  0  0  0  0  0  0  0  0  0  0  0
    5.1764   -1.5678   -0.0810 N   0  0  0  0  0  0  0  0  0  0  0  0
    3.9903   -2.1993   -0.0596 N   0  0  0  0  0  0  0  0  0  0  0  0
   -0.3267    0.0956    2.6360 N   0  0  0  0  0  0  0  0  0  0  0  0
    2.6740   -3.2922    1.9715 H   0  0  0  0  0  0  0  0  0  0  0  0
    2.9106    0.1672   -0.5946 H   0  0  0  0  0  0  0  0  0  0  0  0
    0.7722   -2.2796    3.1580 H   0  0  0  0  0  0  0  0  0  0  0  0
    1.0088    1.1767    0.5939 H   0  0  0  0  0  0  0  0  0  0  0  0
    5.6273   -4.3637   -1.8233 H   0  0  0  0  0  0  0  0  0  0  0  0
    7.4610   -1.4567   -1.9808 H   0  0  0  0  0  0  0  0  0  0  0  0
    7.7892   -1.4453   -0.2305 H   0  0  0  0  0  0  0  0  0  0  0  0
    7.9942   -2.9372   -1.1467 H   0  0  0  0  0  0  0  0  0  0  0  0
    2.7556   -4.9788   -0.0175 H   0  0  0  0  0  0  0  0  0  0  0  0
    1.8580   -3.6760   -0.8350 H   0  0  0  0  0  0  0  0  0  0  0  0
    2.7914   -4.8255   -1.7915 H   0  0  0  0  0  0  0  0  0  0  0  0
   -0.7819   -0.4234    3.3595 H   0  0  0  0  0  0  0  0  0  0  0  0
   -0.6861    0.9744    2.3223 H   0  0  0  0  0  0  0  0  0  0  0  0
  1  3  2  0  0  0  0
  1  6  1  0  0  0  0
  2  4  1  0  0  0  0
  2  6  2  0  0  0  0
  3  7  1  0  0  0  0
  4  7  2  0  0  0  0
  5  8  1  0  0  0  0
  5  9  2  0  0  0  0
  6 13  1  0  0  0  0
  7 14  1  0  0  0  0
  8 10  1  0  0  0  0
  8 12  2  0  0  0  0
  9 11  1  0  0  0  0
  9 13  1  0  0  0  0
 12 13  1  0  0  0  0
  1 15  1  0  0  0  0
  2 16  1  0  0  0  0
  3 17  1  0  0  0  0
  4 18  1  0  0  0  0
  5 19  1  0  0  0  0
 10 20  1  0  0  0  0
 10 21  1  0  0  0  0
 10 22  1  0  0  0  0
 11 23  1  0  0  0  0
 11 24  1  0  0  0  0
 11 25  1  0  0  0  0
 14 26  1  0  0  0  0
 14 27  1  0  0  0  0
M  END
$$$$
frag.vs.383
  -OEChem-01121112263D

 22 23  0     0  0  0  0  0  0999 V2000
    0.4800   -5.2255   -4.4745 C   0  0  0  0  0  0  0  0  0  0  0  0
    0.9620   -4.3897   -3.4261 C   0  0  0  0  0  0  0  0  0  0  0  0
   -0.2303   -1.3824   -1.7538 C   0  0  0  0  0  0  0  0  0  0  0  0
   -0.8790   -5.0944   -4.6576 C   0  0  0  0  0  0  0  0  0  0  0  0
    0.0707   -2.7221   -1.7863 C   0  0  0  0  0  0  0  0  0  0  0  0
   -0.0471   -3.6514   -2.8477 C   0  0  0  0  0  0  0  0  0  0  0  0
    0.0890   -0.9817   -0.4426 C   0  0  0  0  0  0  0  0  0  0  0  0
   -0.0374    0.3306    0.1243 C   0  0  0  0  0  0  0  0  0  0  0  0
    0.9816   -4.3212   -0.0689 C   0  0  0  0  0  0  0  0  0  0  0  0
    0.5568   -1.9856    0.3039 N   0  0  0  0  0  0  0  0  0  0  0  0
    0.5336   -3.0305   -0.5409 N   0  0  0  0  0  0  0  0  0  0  0  0
    0.2534    0.6585    1.2914 O   0  0  0  0  0  0  0  0  0  0  0  0
   -0.5281    1.2548   -0.7581 O   0  0  0  0  0  0  0  0  0  0  0  0
   -1.5681   -3.9672   -3.5681 S   0  0  0  0  0  0  0  0  0  0  0  0
    1.0987   -5.8886   -5.0651 H   0  0  0  0  0  0  0  0  0  0  0  0
    1.9995   -4.3383   -3.1194 H   0  0  0  0  0  0  0  0  0  0  0  0
   -0.6239   -0.7809   -2.5613 H   0  0  0  0  0  0  0  0  0  0  0  0
   -1.5000   -5.6066   -5.3786 H   0  0  0  0  0  0  0  0  0  0  0  0
    2.0547   -4.3975   -0.2631 H   0  0  0  0  0  0  0  0  0  0  0  0
    0.7799   -4.4071    1.0025 H   0  0  0  0  0  0  0  0  0  0  0  0
    0.4389   -5.1084   -0.5997 H   0  0  0  0  0  0  0  0  0  0  0  0
   -0.6175    2.1557   -0.3802 H   0  0  0  0  0  0  0  0  0  0  0  0
  1  2  1  0  0  0  0
  1  4  2  0  0  0  0
  2  6  2  0  0  0  0
  3  5  2  0  0  0  0
  3  7  1  0  0  0  0
  4 14  1  0  0  0  0
  5  6  1  0  0  0  0
  5 11  1  0  0  0  0
  6 14  1  0  0  0  0
  7  8  1  0  0  0  0
  7 10  2  0  0  0  0
  8 12  2  0  0  0  0
  8 13  1  0  0  0  0
  9 11  1  0  0  0  0
 10 11  1  0  0  0  0
  1 15  1  0  0  0  0
  2 16  1  0  0  0  0
  3 17  1  0  0  0  0
  4 18  1  0  0  0  0
  9 19  1  0  0  0  0
  9 20  1  0  0  0  0
  9 21  1  0  0  0  0
 13 22  1  0  0  0  0
M  END
$$$$
frag.vs.384
  -OEChem-01121112263D

 26 27  0     0  0  0  0  0  0999 V2000
    2.3192   -2.3109    1.6670 C   0  0  0  0  0  0  0  0  0  0  0  0
    2.4441   -0.3779    0.2230 C   0  0  0  0  0  0  0  0  0  0  0  0
    1.2406   -1.7379    2.3407 C   0  0  0  0  0  0  0  0  0  0  0  0
    1.3655    0.1951    0.8967 C   0  0  0  0  0  0  0  0  0  0  0  0
    5.9460   -2.3906   -0.7969 C   0  0  0  0  0  0  0  0  0  0  0  0
    5.2579   -3.5409   -1.2274 C   0  0  0  0  0  0  0  0  0  0  0  0
    2.9210   -1.6309    0.6081 C   0  0  0  0  0  0  0  0  0  0  0  0
    0.7637   -0.4849    1.9556 C   0  0  0  0  0  0  0  0  0  0  0  0
    3.9866   -3.3864   -0.7309 C   0  0  0  0  0  0  0  0  0  0  0  0
    2.7966   -4.2549   -0.8387 C   0  0  0  0  0  0  0  0  0  0  0  0
    5.7871   -4.6562   -2.0294 C   0  0  0  0  0  0  0  0  0  0  0  0
    5.1756   -1.5662   -0.0822 N   0  0  0  0  0  0  0  0  0  0  0  0
    3.9903   -2.1991   -0.0597 N   0  0  0  0  0  0  0  0  0  0  0  0
    6.0052   -5.7985   -1.1993 O   0  0  0  0  0  0  0  0  0  0  0  0
   -0.2721    0.0652    2.6025 F   0  0  0  0  0  0  0  0  0  0  0  0
    2.6811   -3.2878    1.9783 H   0  0  0  0  0  0  0  0  0  0  0  0
    2.9032    0.1626   -0.6012 H   0  0  0  0  0  0  0  0  0  0  0  0
    0.7723   -2.2666    3.1657 H   0  0  0  0  0  0  0  0  0  0  0  0
    0.9932    1.1701    0.5968 H   0  0  0  0  0  0  0  0  0  0  0  0
    6.9763   -2.1167   -0.9732 H   0  0  0  0  0  0  0  0  0  0  0  0
    2.7549   -4.9750   -0.0057 H   0  0  0  0  0  0  0  0  0  0  0  0
    1.8592   -3.6737   -0.8278 H   0  0  0  0  0  0  0  0  0  0  0  0
    2.7890   -4.8294   -1.7804 H   0  0  0  0  0  0  0  0  0  0  0  0
    5.0971   -4.9552   -2.8401 H   0  0  0  0  0  0  0  0  0  0  0  0
    6.7473   -4.4009   -2.5145 H   0  0  0  0  0  0  0  0  0  0  0  0
    6.3507   -6.4942   -1.7782 H   0  0  0  0  0  0  0  0  0  0  0  0
  1  3  2  0  0  0  0
  1  7  1  0  0  0  0
  2  4  1  0  0  0  0
  2  7  2  0  0  0  0
  3  8  1  0  0  0  0
  4  8  2  0  0  0  0
  5  6  1  0  0  0  0
  5 12  2  0  0  0  0
  6  9  2  0  0  0  0
  6 11  1  0  0  0  0
  7 13  1  0  0  0  0
  8 15  1  0  0  0  0
  9 10  1  0  0  0  0
  9 13  1  0  0  0  0
 11 14  1  0  0  0  0
 12 13  1  0  0  0  0
  1 16  1  0  0  0  0
  2 17  1  0  0  0  0
  3 18  1  0  0  0  0
  4 19  1  0  0  0  0
  5 20  1  0  0  0  0
 10 21  1  0  0  0  0
 10 22  1  0  0  0  0
 10 23  1  0  0  0  0
 11 24  1  0  0  0  0
 11 25  1  0  0  0  0
 14 26  1  0  0  0  0
M  END
$$$$
frag.vs.385
  -OEChem-01121112263D

 26 27  0     0  0  0  0  0  0999 V2000
    1.8872   -1.0352   -0.1124 C   0  0  0  0  0  0  0  0  0  0  0  0
    2.2861    0.0858    0.6154 C   0  0  0  0  0  0  0  0  0  0  0  0
    1.4444   -2.1780    0.5538 C   0  0  0  0  0  0  0  0  0  0  0  0
    2.2424    0.0641    2.0094 C   0  0  0  0  0  0  0  0  0  0  0  0
    1.4007   -2.1997    1.9479 C   0  0  0  0  0  0  0  0  0  0  0  0
    2.1978   -1.7303    6.0101 C   0  0  0  0  0  0  0  0  0  0  0  0
    1.3001   -0.6545    6.1468 C   0  0  0  0  0  0  0  0  0  0  0  0
    1.7997   -1.0786    2.6757 C   0  0  0  0  0  0  0  0  0  0  0  0
    1.0318   -0.2653    4.8573 C   0  0  0  0  0  0  0  0  0  0  0  0
    0.1640    0.8098    4.3347 C   0  0  0  0  0  0  0  0  0  0  0  0
    0.7711   -0.0796    7.3945 C   0  0  0  0  0  0  0  0  0  0  0  0
    2.4807   -2.0069    4.7344 N   0  0  0  0  0  0  0  0  0  0  0  0
    1.7565   -1.0993    4.0577 N   0  0  0  0  0  0  0  0  0  0  0  0
    1.4099    1.1684    7.6704 O   0  0  0  0  0  0  0  0  0  0  0  0
    1.9193   -1.0183   -1.1978 H   0  0  0  0  0  0  0  0  0  0  0  0
    2.6296    0.9761    0.0969 H   0  0  0  0  0  0  0  0  0  0  0  0
    1.1325   -3.0501   -0.0137 H   0  0  0  0  0  0  0  0  0  0  0  0
    2.5555    0.9450    2.5647 H   0  0  0  0  0  0  0  0  0  0  0  0
    1.0527   -3.0967    2.4544 H   0  0  0  0  0  0  0  0  0  0  0  0
    2.6587   -2.3255    6.7854 H   0  0  0  0  0  0  0  0  0  0  0  0
    0.7230    1.7533    4.2275 H   0  0  0  0  0  0  0  0  0  0  0  0
   -0.2590    0.5559    3.3482 H   0  0  0  0  0  0  0  0  0  0  0  0
   -0.6976    1.0028    4.9961 H   0  0  0  0  0  0  0  0  0  0  0  0
   -0.3184    0.1032    7.3440 H   0  0  0  0  0  0  0  0  0  0  0  0
    0.9365   -0.7447    8.2621 H   0  0  0  0  0  0  0  0  0  0  0  0
    1.0236    1.4956    8.4963 H   0  0  0  0  0  0  0  0  0  0  0  0
  1  2  1  0  0  0  0
  1  3  2  0  0  0  0
  2  4  2  0  0  0  0
  3  5  1  0  0  0  0
  4  8  1  0  0  0  0
  5  8  2  0  0  0  0
  6  7  1  0  0  0  0
  6 12  2  0  0  0  0
  7  9  2  0  0  0  0
  7 11  1  0  0  0  0
  8 13  1  0  0  0  0
  9 10  1  0  0  0  0
  9 13  1  0  0  0  0
 11 14  1  0  0  0  0
 12 13  1  0  0  0  0
  1 15  1  0  0  0  0
  2 16  1  0  0  0  0
  3 17  1  0  0  0  0
  4 18  1  0  0  0  0
  5 19  1  0  0  0  0
  6 20  1  0  0  0  0
 10 21  1  0  0  0  0
 10 22  1  0  0  0  0
 10 23  1  0  0  0  0
 11 24  1  0  0  0  0
 11 25  1  0  0  0  0
 14 26  1  0  0  0  0
M  END
$$$$
frag.vs.386
  -OEChem-01121112263D

 21 22  0     0  0  0  0  0  0999 V2000
    1.8851   -1.0363   -0.1124 C   0  0  0  0  0  0  0  0  0  0  0  0
    0.8066   -0.4630    0.5610 C   0  0  0  0  0  0  0  0  0  0  0  0
    2.9210   -1.6309    0.6081 C   0  0  0  0  0  0  0  0  0  0  0  0
    0.7638   -0.4841    1.9551 C   0  0  0  0  0  0  0  0  0  0  0  0
    5.8937   -2.9901    3.2640 C   0  0  0  0  0  0  0  0  0  0  0  0
    4.9113   -3.2806    4.2296 C   0  0  0  0  0  0  0  0  0  0  0  0
    5.2161   -2.3178    2.2764 C   0  0  0  0  0  0  0  0  0  0  0  0
    2.8783   -1.6520    2.0022 C   0  0  0  0  0  0  0  0  0  0  0  0
    1.7997   -1.0786    2.6757 C   0  0  0  0  0  0  0  0  0  0  0  0
    3.7018   -2.8296    3.8866 N   0  0  0  0  0  0  0  0  0  0  0  0
    3.9197   -2.2488    2.6944 N   0  0  0  0  0  0  0  0  0  0  0  0
    1.7331   -1.0850    4.0877 N   0  0  0  0  0  0  0  0  0  0  0  0
    1.9187   -1.0196   -1.1978 H   0  0  0  0  0  0  0  0  0  0  0  0
   -0.0002   -0.0003   -0.0000 H   0  0  0  0  0  0  0  0  0  0  0  0
    3.7551   -2.0739    0.0690 H   0  0  0  0  0  0  0  0  0  0  0  0
   -0.0822   -0.0343    2.4685 H   0  0  0  0  0  0  0  0  0  0  0  0
    6.9458   -3.2332    3.2815 H   0  0  0  0  0  0  0  0  0  0  0  0
    5.0259   -3.8021    5.1693 H   0  0  0  0  0  0  0  0  0  0  0  0
    5.5464   -1.8941    1.3372 H   0  0  0  0  0  0  0  0  0  0  0  0
    0.9715   -0.6235    4.5391 H   0  0  0  0  0  0  0  0  0  0  0  0
    2.4952   -1.4677    4.6069 H   0  0  0  0  0  0  0  0  0  0  0  0
  1  2  1  0  0  0  0
  1  3  2  0  0  0  0
  2  4  2  0  0  0  0
  3  8  1  0  0  0  0
  4  9  1  0  0  0  0
  5  6  1  0  0  0  0
  5  7  2  0  0  0  0
  6 10  2  0  0  0  0
  7 11  1  0  0  0  0
  8  9  2  0  0  0  0
  8 11  1  0  0  0  0
  9 12  1  0  0  0  0
 10 11  1  0  0  0  0
  1 13  1  0  0  0  0
  2 14  1  0  0  0  0
  3 15  1  0  0  0  0
  4 16  1  0  0  0  0
  5 17  1  0  0  0  0
  6 18  1  0  0  0  0
  7 19  1  0  0  0  0
 12 20  1  0  0  0  0
 12 21  1  0  0  0  0
M  END
$$$$
frag.vs.387
  -OEChem-01121112263D

 22 23  0     0  0  0  0  0  0999 V2000
    1.8851   -1.0363   -0.1124 C   0  0  0  0  0  0  0  0  0  0  0  0
    2.8783   -1.6520    2.0022 C   0  0  0  0  0  0  0  0  0  0  0  0
    0.8066   -0.4630    0.5610 C   0  0  0  0  0  0  0  0  0  0  0  0
    1.7997   -1.0786    2.6757 C   0  0  0  0  0  0  0  0  0  0  0  0
   -2.1807    1.1110    3.0691 C   0  0  0  0  0  0  0  0  0  0  0  0
   -1.5033    0.6996    4.2326 C   0  0  0  0  0  0  0  0  0  0  0  0
   -1.3740    0.6966    2.0375 C   0  0  0  0  0  0  0  0  0  0  0  0
    2.9210   -1.6309    0.6081 C   0  0  0  0  0  0  0  0  0  0  0  0
    0.7638   -0.4841    1.9551 C   0  0  0  0  0  0  0  0  0  0  0  0
    4.0458   -2.2284   -0.0936 C   0  0  0  0  0  0  0  0  0  0  0  0
   -0.3548    0.0719    3.9659 N   0  0  0  0  0  0  0  0  0  0  0  0
   -0.3044    0.0857    2.6230 N   0  0  0  0  0  0  0  0  0  0  0  0
    4.1863   -2.2660   -1.3205 O   0  0  0  0  0  0  0  0  0  0  0  0
    4.9658   -2.7617    0.7563 O   0  0  0  0  0  0  0  0  0  0  0  0
    1.9083   -1.0139   -1.1990 H   0  0  0  0  0  0  0  0  0  0  0  0
    3.6798   -2.1131    2.5735 H   0  0  0  0  0  0  0  0  0  0  0  0
    0.0054   -0.0032   -0.0128 H   0  0  0  0  0  0  0  0  0  0  0  0
    1.7794   -1.1017    3.7626 H   0  0  0  0  0  0  0  0  0  0  0  0
   -3.1222    1.6340    2.9890 H   0  0  0  0  0  0  0  0  0  0  0  0
   -1.7983    0.8308    5.2639 H   0  0  0  0  0  0  0  0  0  0  0  0
   -1.4760    0.7849    0.9639 H   0  0  0  0  0  0  0  0  0  0  0  0
    5.7295   -3.1667    0.2924 H   0  0  0  0  0  0  0  0  0  0  0  0
  1  3  2  0  0  0  0
  1  8  1  0  0  0  0
  2  4  1  0  0  0  0
  2  8  2  0  0  0  0
  3  9  1  0  0  0  0
  4  9  2  0  0  0  0
  5  6  1  0  0  0  0
  5  7  2  0  0  0  0
  6 11  2  0  0  0  0
  7 12  1  0  0  0  0
  8 10  1  0  0  0  0
  9 12  1  0  0  0  0
 10 13  2  0  0  0  0
 10 14  1  0  0  0  0
 11 12  1  0  0  0  0
  1 15  1  0  0  0  0
  2 16  1  0  0  0  0
  3 17  1  0  0  0  0
  4 18  1  0  0  0  0
  5 19  1  0  0  0  0
  6 20  1  0  0  0  0
  7 21  1  0  0  0  0
 14 22  1  0  0  0  0
M  END
$$$$
frag.vs.388
  -OEChem-01121112263D

 24 25  0     0  0  0  0  0  0999 V2000
    1.8851   -1.0363   -0.1124 C   0  0  0  0  0  0  0  0  0  0  0  0
    2.8783   -1.6520    2.0022 C   0  0  0  0  0  0  0  0  0  0  0  0
    0.8066   -0.4630    0.5610 C   0  0  0  0  0  0  0  0  0  0  0  0
    1.7997   -1.0786    2.6757 C   0  0  0  0  0  0  0  0  0  0  0  0
   -2.1833    1.1056    3.0698 C   0  0  0  0  0  0  0  0  0  0  0  0
   -1.5050    0.6954    4.2331 C   0  0  0  0  0  0  0  0  0  0  0  0
   -1.3762    0.6927    2.0380 C   0  0  0  0  0  0  0  0  0  0  0  0
    2.9210   -1.6309    0.6081 C   0  0  0  0  0  0  0  0  0  0  0  0
    0.7638   -0.4841    1.9551 C   0  0  0  0  0  0  0  0  0  0  0  0
    4.0742   -2.2438   -0.1119 C   0  0  0  0  0  0  0  0  0  0  0  0
   -0.3555    0.0698    3.9662 N   0  0  0  0  0  0  0  0  0  0  0  0
   -0.3053    0.0837    2.6233 N   0  0  0  0  0  0  0  0  0  0  0  0
    3.7375   -3.5128   -0.7058 N   0  0  0  0  0  0  0  0  0  0  0  0
    1.9108   -1.0156   -1.1987 H   0  0  0  0  0  0  0  0  0  0  0  0
    3.6807   -2.1132    2.5718 H   0  0  0  0  0  0  0  0  0  0  0  0
    0.0052   -0.0035   -0.0127 H   0  0  0  0  0  0  0  0  0  0  0  0
    1.7795   -1.1027    3.7626 H   0  0  0  0  0  0  0  0  0  0  0  0
   -3.1258    1.6269    2.9900 H   0  0  0  0  0  0  0  0  0  0  0  0
   -1.8000    0.8259    5.2646 H   0  0  0  0  0  0  0  0  0  0  0  0
   -1.4785    0.7809    0.9645 H   0  0  0  0  0  0  0  0  0  0  0  0
    4.4326   -1.5874   -0.9172 H   0  0  0  0  0  0  0  0  0  0  0  0
    4.9257   -2.4133    0.5615 H   0  0  0  0  0  0  0  0  0  0  0  0
    4.4674   -4.1870   -0.8642 H   0  0  0  0  0  0  0  0  0  0  0  0
    2.8342   -3.6269   -1.1345 H   0  0  0  0  0  0  0  0  0  0  0  0
  1  3  2  0  0  0  0
  1  8  1  0  0  0  0
  2  4  1  0  0  0  0
  2  8  2  0  0  0  0
  3  9  1  0  0  0  0
  4  9  2  0  0  0  0
  5  6  1  0  0  0  0
  5  7  2  0  0  0  0
  6 11  2  0  0  0  0
  7 12  1  0  0  0  0
  8 10  1  0  0  0  0
  9 12  1  0  0  0  0
 10 13  1  0  0  0  0
 11 12  1  0  0  0  0
  1 14  1  0  0  0  0
  2 15  1  0  0  0  0
  3 16  1  0  0  0  0
  4 17  1  0  0  0  0
  5 18  1  0  0  0  0
  6 19  1  0  0  0  0
  7 20  1  0  0  0  0
 10 21  1  0  0  0  0
 10 22  1  0  0  0  0
 13 23  1  0  0  0  0
 13 24  1  0  0  0  0
M  END
$$$$
frag.vs.389
  -OEChem-01121112263D

 23 24  0     0  0  0  0  0  0999 V2000
    1.8851   -1.0363   -0.1124 C   0  0  0  0  0  0  0  0  0  0  0  0
    2.8783   -1.6520    2.0022 C   0  0  0  0  0  0  0  0  0  0  0  0
    0.8066   -0.4630    0.5610 C   0  0  0  0  0  0  0  0  0  0  0  0
    1.7997   -1.0786    2.6757 C   0  0  0  0  0  0  0  0  0  0  0  0
   -2.1833    1.1056    3.0698 C   0  0  0  0  0  0  0  0  0  0  0  0
   -1.5050    0.6954    4.2331 C   0  0  0  0  0  0  0  0  0  0  0  0
   -1.3762    0.6927    2.0380 C   0  0  0  0  0  0  0  0  0  0  0  0
    2.9210   -1.6309    0.6081 C   0  0  0  0  0  0  0  0  0  0  0  0
    0.7638   -0.4841    1.9551 C   0  0  0  0  0  0  0  0  0  0  0  0
    4.0742   -2.2438   -0.1119 C   0  0  0  0  0  0  0  0  0  0  0  0
   -0.3555    0.0698    3.9662 N   0  0  0  0  0  0  0  0  0  0  0  0
   -0.3053    0.0837    2.6233 N   0  0  0  0  0  0  0  0  0  0  0  0
    3.6719   -3.4850   -0.6782 O   0  0  0  0  0  0  0  0  0  0  0  0
    1.9108   -1.0156   -1.1987 H   0  0  0  0  0  0  0  0  0  0  0  0
    3.6807   -2.1132    2.5718 H   0  0  0  0  0  0  0  0  0  0  0  0
    0.0052   -0.0035   -0.0127 H   0  0  0  0  0  0  0  0  0  0  0  0
    1.7795   -1.1027    3.7626 H   0  0  0  0  0  0  0  0  0  0  0  0
   -3.1258    1.6269    2.9900 H   0  0  0  0  0  0  0  0  0  0  0  0
   -1.8000    0.8259    5.2646 H   0  0  0  0  0  0  0  0  0  0  0  0
   -1.4785    0.7809    0.9645 H   0  0  0  0  0  0  0  0  0  0  0  0
    4.4362   -1.5912   -0.9181 H   0  0  0  0  0  0  0  0  0  0  0  0
    4.9173   -2.4235    0.5693 H   0  0  0  0  0  0  0  0  0  0  0  0
    4.4477   -3.8479   -1.1348 H   0  0  0  0  0  0  0  0  0  0  0  0
  1  3  2  0  0  0  0
  1  8  1  0  0  0  0
  2  4  1  0  0  0  0
  2  8  2  0  0  0  0
  3  9  1  0  0  0  0
  4  9  2  0  0  0  0
  5  6  1  0  0  0  0
  5  7  2  0  0  0  0
  6 11  2  0  0  0  0
  7 12  1  0  0  0  0
  8 10  1  0  0  0  0
  9 12  1  0  0  0  0
 10 13  1  0  0  0  0
 11 12  1  0  0  0  0
  1 14  1  0  0  0  0
  2 15  1  0  0  0  0
  3 16  1  0  0  0  0
  4 17  1  0  0  0  0
  5 18  1  0  0  0  0
  6 19  1  0  0  0  0
  7 20  1  0  0  0  0
 10 21  1  0  0  0  0
 10 22  1  0  0  0  0
 13 23  1  0  0  0  0
M  END
$$$$
frag.vs.390
  -OEChem-01121112263D

 21 22  0     0  0  0  0  0  0999 V2000
    1.8851   -1.0363   -0.1124 C   0  0  0  0  0  0  0  0  0  0  0  0
    2.8783   -1.6520    2.0022 C   0  0  0  0  0  0  0  0  0  0  0  0
    0.8066   -0.4630    0.5610 C   0  0  0  0  0  0  0  0  0  0  0  0
    1.7997   -1.0786    2.6757 C   0  0  0  0  0  0  0  0  0  0  0  0
    5.3399   -2.8944   -1.6300 C   0  0  0  0  0  0  0  0  0  0  0  0
    5.8145   -3.1986   -0.3400 C   0  0  0  0  0  0  0  0  0  0  0  0
    4.1498   -2.2438   -1.4134 C   0  0  0  0  0  0  0  0  0  0  0  0
    2.9210   -1.6309    0.6081 C   0  0  0  0  0  0  0  0  0  0  0  0
    0.7638   -0.4841    1.9551 C   0  0  0  0  0  0  0  0  0  0  0  0
    4.9931   -2.7759    0.6246 N   0  0  0  0  0  0  0  0  0  0  0  0
    3.9903   -2.1993   -0.0596 N   0  0  0  0  0  0  0  0  0  0  0  0
   -0.3267    0.0955    2.6360 N   0  0  0  0  0  0  0  0  0  0  0  0
    1.9058   -1.0127   -1.1993 H   0  0  0  0  0  0  0  0  0  0  0  0
    3.6789   -2.1122    2.5763 H   0  0  0  0  0  0  0  0  0  0  0  0
    0.0047   -0.0022   -0.0102 H   0  0  0  0  0  0  0  0  0  0  0  0
    1.7764   -1.1008    3.7622 H   0  0  0  0  0  0  0  0  0  0  0  0
    5.7966   -3.1150   -2.5834 H   0  0  0  0  0  0  0  0  0  0  0  0
    6.7248   -3.7106   -0.0622 H   0  0  0  0  0  0  0  0  0  0  0  0
    3.4262   -1.8201   -2.0972 H   0  0  0  0  0  0  0  0  0  0  0  0
   -1.0393    0.5599    2.1102 H   0  0  0  0  0  0  0  0  0  0  0  0
   -0.3224    0.1155    3.6358 H   0  0  0  0  0  0  0  0  0  0  0  0
  1  3  2  0  0  0  0
  1  8  1  0  0  0  0
  2  4  1  0  0  0  0
  2  8  2  0  0  0  0
  3  9  1  0  0  0  0
  4  9  2  0  0  0  0
  5  6  1  0  0  0  0
  5  7  2  0  0  0  0
  6 10  2  0  0  0  0
  7 11  1  0  0  0  0
  8 11  1  0  0  0  0
  9 12  1  0  0  0  0
 10 11  1  0  0  0  0
  1 13  1  0  0  0  0
  2 14  1  0  0  0  0
  3 15  1  0  0  0  0
  4 16  1  0  0  0  0
  5 17  1  0  0  0  0
  6 18  1  0  0  0  0
  7 19  1  0  0  0  0
 12 20  1  0  0  0  0
 12 21  1  0  0  0  0
M  END
$$$$
frag.vs.391
  -OEChem-01121112263D

 21 22  0     0  0  0  0  0  0999 V2000
    1.8851   -1.0363   -0.1124 C   0  0  0  0  0  0  0  0  0  0  0  0
    2.8783   -1.6520    2.0022 C   0  0  0  0  0  0  0  0  0  0  0  0
    0.8066   -0.4630    0.5610 C   0  0  0  0  0  0  0  0  0  0  0  0
    1.7997   -1.0786    2.6757 C   0  0  0  0  0  0  0  0  0  0  0  0
   -1.5388    0.7245    4.1489 C   0  0  0  0  0  0  0  0  0  0  0  0
   -1.3829    0.7005    2.0675 C   0  0  0  0  0  0  0  0  0  0  0  0
    2.9210   -1.6309    0.6081 C   0  0  0  0  0  0  0  0  0  0  0  0
    0.7638   -0.4841    1.9551 C   0  0  0  0  0  0  0  0  0  0  0  0
    4.0458   -2.2284   -0.0936 C   0  0  0  0  0  0  0  0  0  0  0  0
   -2.1892    1.1193    3.0151 N   0  0  0  0  0  0  0  0  0  0  0  0
   -0.3807    0.0878    3.9626 N   0  0  0  0  0  0  0  0  0  0  0  0
   -0.3044    0.0857    2.6230 N   0  0  0  0  0  0  0  0  0  0  0  0
    4.1863   -2.2660   -1.3205 O   0  0  0  0  0  0  0  0  0  0  0  0
    4.9658   -2.7617    0.7563 O   0  0  0  0  0  0  0  0  0  0  0  0
    1.9083   -1.0139   -1.1990 H   0  0  0  0  0  0  0  0  0  0  0  0
    3.6798   -2.1131    2.5735 H   0  0  0  0  0  0  0  0  0  0  0  0
    0.0054   -0.0032   -0.0128 H   0  0  0  0  0  0  0  0  0  0  0  0
    1.7794   -1.1017    3.7626 H   0  0  0  0  0  0  0  0  0  0  0  0
   -1.9217    0.9050    5.1423 H   0  0  0  0  0  0  0  0  0  0  0  0
   -1.5322    0.8122    1.0021 H   0  0  0  0  0  0  0  0  0  0  0  0
    5.7295   -3.1667    0.2924 H   0  0  0  0  0  0  0  0  0  0  0  0
  1  3  1  0  0  0  0
  1  7  2  0  0  0  0
  2  4  2  0  0  0  0
  2  7  1  0  0  0  0
  3  8  2  0  0  0  0
  4  8  1  0  0  0  0
  5 10  1  0  0  0  0
  5 11  2  0  0  0  0
  6 10  2  0  0  0  0
  6 12  1  0  0  0  0
  7  9  1  0  0  0  0
  8 12  1  0  0  0  0
  9 13  2  0  0  0  0
  9 14  1  0  0  0  0
 11 12  1  0  0  0  0
  1 15  1  0  0  0  0
  2 16  1  0  0  0  0
  3 17  1  0  0  0  0
  4 18  1  0  0  0  0
  5 19  1  0  0  0  0
  6 20  1  0  0  0  0
 14 21  1  0  0  0  0
M  END
$$$$
frag.vs.392
  -OEChem-01121112263D

 22 23  0     0  0  0  0  0  0999 V2000
    1.8851   -1.0363   -0.1124 C   0  0  0  0  0  0  0  0  0  0  0  0
    2.8783   -1.6520    2.0022 C   0  0  0  0  0  0  0  0  0  0  0  0
    0.8066   -0.4630    0.5610 C   0  0  0  0  0  0  0  0  0  0  0  0
    1.7997   -1.0786    2.6757 C   0  0  0  0  0  0  0  0  0  0  0  0
   -1.5405    0.7203    4.1495 C   0  0  0  0  0  0  0  0  0  0  0  0
   -1.3850    0.6967    2.0681 C   0  0  0  0  0  0  0  0  0  0  0  0
    2.9210   -1.6309    0.6081 C   0  0  0  0  0  0  0  0  0  0  0  0
    0.7638   -0.4841    1.9551 C   0  0  0  0  0  0  0  0  0  0  0  0
    4.0742   -2.2438   -0.1119 C   0  0  0  0  0  0  0  0  0  0  0  0
   -2.1919    1.1140    3.0158 N   0  0  0  0  0  0  0  0  0  0  0  0
   -0.3813    0.0856    3.9629 N   0  0  0  0  0  0  0  0  0  0  0  0
   -0.3053    0.0837    2.6233 N   0  0  0  0  0  0  0  0  0  0  0  0
    3.6719   -3.4850   -0.6782 O   0  0  0  0  0  0  0  0  0  0  0  0
    1.9108   -1.0156   -1.1987 H   0  0  0  0  0  0  0  0  0  0  0  0
    3.6807   -2.1132    2.5718 H   0  0  0  0  0  0  0  0  0  0  0  0
    0.0052   -0.0035   -0.0127 H   0  0  0  0  0  0  0  0  0  0  0  0
    1.7795   -1.1027    3.7626 H   0  0  0  0  0  0  0  0  0  0  0  0
   -1.9236    0.8999    5.1429 H   0  0  0  0  0  0  0  0  0  0  0  0
   -1.5347    0.8081    1.0027 H   0  0  0  0  0  0  0  0  0  0  0  0
    4.4362   -1.5912   -0.9181 H   0  0  0  0  0  0  0  0  0  0  0  0
    4.9173   -2.4235    0.5693 H   0  0  0  0  0  0  0  0  0  0  0  0
    4.4477   -3.8479   -1.1348 H   0  0  0  0  0  0  0  0  0  0  0  0
  1  3  1  0  0  0  0
  1  7  2  0  0  0  0
  2  4  2  0  0  0  0
  2  7  1  0  0  0  0
  3  8  2  0  0  0  0
  4  8  1  0  0  0  0
  5 10  1  0  0  0  0
  5 11  2  0  0  0  0
  6 10  2  0  0  0  0
  6 12  1  0  0  0  0
  7  9  1  0  0  0  0
  8 12  1  0  0  0  0
  9 13  1  0  0  0  0
 11 12  1  0  0  0  0
  1 14  1  0  0  0  0
  2 15  1  0  0  0  0
  3 16  1  0  0  0  0
  4 17  1  0  0  0  0
  5 18  1  0  0  0  0
  6 19  1  0  0  0  0
  9 20  1  0  0  0  0
  9 21  1  0  0  0  0
 13 22  1  0  0  0  0
M  END
$$$$
frag.vs.393
  -OEChem-01121112263D

 19 20  0     0  0  0  0  0  0999 V2000
    1.8851   -1.0363   -0.1124 C   0  0  0  0  0  0  0  0  0  0  0  0
    2.8783   -1.6520    2.0022 C   0  0  0  0  0  0  0  0  0  0  0  0
    0.8066   -0.4630    0.5610 C   0  0  0  0  0  0  0  0  0  0  0  0
    1.7997   -1.0786    2.6757 C   0  0  0  0  0  0  0  0  0  0  0  0
    5.7729   -3.1752   -0.4210 C   0  0  0  0  0  0  0  0  0  0  0  0
    4.1768   -2.2585   -1.4055 C   0  0  0  0  0  0  0  0  0  0  0  0
    2.9210   -1.6309    0.6081 C   0  0  0  0  0  0  0  0  0  0  0  0
    0.7638   -0.4841    1.9551 C   0  0  0  0  0  0  0  0  0  0  0  0
    5.3054   -2.8754   -1.6685 N   0  0  0  0  0  0  0  0  0  0  0  0
    5.0046   -2.7826    0.5973 N   0  0  0  0  0  0  0  0  0  0  0  0
    3.9905   -2.1992   -0.0595 N   0  0  0  0  0  0  0  0  0  0  0  0
   -0.2879    0.0758    2.6129 O   0  0  0  0  0  0  0  0  0  0  0  0
    1.9055   -1.0130   -1.1994 H   0  0  0  0  0  0  0  0  0  0  0  0
    3.6788   -2.1127    2.5760 H   0  0  0  0  0  0  0  0  0  0  0  0
    0.0025   -0.0011   -0.0055 H   0  0  0  0  0  0  0  0  0  0  0  0
    1.7730   -1.0981    3.7618 H   0  0  0  0  0  0  0  0  0  0  0  0
    6.7038   -3.6945   -0.2486 H   0  0  0  0  0  0  0  0  0  0  0  0
    3.4857   -1.8488   -2.1295 H   0  0  0  0  0  0  0  0  0  0  0  0
   -0.9223    0.4467    1.9790 H   0  0  0  0  0  0  0  0  0  0  0  0
  1  3  1  0  0  0  0
  1  7  2  0  0  0  0
  2  4  2  0  0  0  0
  2  7  1  0  0  0  0
  3  8  2  0  0  0  0
  4  8  1  0  0  0  0
  5  9  1  0  0  0  0
  5 10  2  0  0  0  0
  6  9  2  0  0  0  0
  6 11  1  0  0  0  0
  7 11  1  0  0  0  0
  8 12  1  0  0  0  0
 10 11  1  0  0  0  0
  1 13  1  0  0  0  0
  2 14  1  0  0  0  0
  3 15  1  0  0  0  0
  4 16  1  0  0  0  0
  5 17  1  0  0  0  0
  6 18  1  0  0  0  0
 12 19  1  0  0  0  0
M  END
$$$$
frag.vs.394
  -OEChem-01121112263D

 20 21  0     0  0  0  0  0  0999 V2000
    1.8851   -1.0363   -0.1124 C   0  0  0  0  0  0  0  0  0  0  0  0
    2.8783   -1.6520    2.0022 C   0  0  0  0  0  0  0  0  0  0  0  0
    0.8066   -0.4630    0.5610 C   0  0  0  0  0  0  0  0  0  0  0  0
    1.7997   -1.0786    2.6757 C   0  0  0  0  0  0  0  0  0  0  0  0
    5.7726   -3.1755   -0.4212 C   0  0  0  0  0  0  0  0  0  0  0  0
    4.1764   -2.2587   -1.4055 C   0  0  0  0  0  0  0  0  0  0  0  0
    2.9210   -1.6309    0.6081 C   0  0  0  0  0  0  0  0  0  0  0  0
    0.7638   -0.4841    1.9551 C   0  0  0  0  0  0  0  0  0  0  0  0
    5.3049   -2.8758   -1.6686 N   0  0  0  0  0  0  0  0  0  0  0  0
    5.0045   -2.7827    0.5972 N   0  0  0  0  0  0  0  0  0  0  0  0
    3.9903   -2.1993   -0.0596 N   0  0  0  0  0  0  0  0  0  0  0  0
   -0.3267    0.0955    2.6360 N   0  0  0  0  0  0  0  0  0  0  0  0
    1.9058   -1.0127   -1.1993 H   0  0  0  0  0  0  0  0  0  0  0  0
    3.6789   -2.1122    2.5763 H   0  0  0  0  0  0  0  0  0  0  0  0
    0.0047   -0.0022   -0.0102 H   0  0  0  0  0  0  0  0  0  0  0  0
    1.7764   -1.1008    3.7622 H   0  0  0  0  0  0  0  0  0  0  0  0
    6.7034   -3.6949   -0.2488 H   0  0  0  0  0  0  0  0  0  0  0  0
    3.4852   -1.8490   -2.1295 H   0  0  0  0  0  0  0  0  0  0  0  0
   -1.0393    0.5599    2.1102 H   0  0  0  0  0  0  0  0  0  0  0  0
   -0.3224    0.1155    3.6358 H   0  0  0  0  0  0  0  0  0  0  0  0
  1  3  1  0  0  0  0
  1  7  2  0  0  0  0
  2  4  2  0  0  0  0
  2  7  1  0  0  0  0
  3  8  2  0  0  0  0
  4  8  1  0  0  0  0
  5  9  1  0  0  0  0
  5 10  2  0  0  0  0
  6  9  2  0  0  0  0
  6 11  1  0  0  0  0
  7 11  1  0  0  0  0
  8 12  1  0  0  0  0
 10 11  1  0  0  0  0
  1 13  1  0  0  0  0
  2 14  1  0  0  0  0
  3 15  1  0  0  0  0
  4 16  1  0  0  0  0
  5 17  1  0  0  0  0
  6 18  1  0  0  0  0
 12 19  1  0  0  0  0
 12 20  1  0  0  0  0
M  END
$$$$
frag.vs.395
  -OEChem-01121112263D

 21 22  0     1  0  0  0  0  0999 V2000
    1.8190    0.2993    1.1225 C   0  0  0  0  0  0  0  0  0  0  0  0
    0.4296    0.1508    0.9868 C   0  0  0  0  0  0  0  0  0  0  0  0
    2.3937    0.4827    2.3810 C   0  0  0  0  0  0  0  0  0  0  0  0
   -0.4047    0.1883    2.1074 C   0  0  0  0  0  0  0  0  0  0  0  0
    1.5537    0.5234    3.4800 C   0  0  0  0  0  0  0  0  0  0  0  0
    0.1697    0.3912    3.3496 C   0  0  0  0  0  0  0  0  0  0  0  0
    0.2162    2.1688    6.0198 C   0  0  0  0  0  0  0  0  0  0  0  0
    1.9078    0.6698    4.9268 C   0  0  0  0  0  0  0  0  0  0  0  0
    0.5180    0.7478    5.5919 C   0  0  2  0  0  0  0  0  0  0  0  0
   -0.4728    0.4197    4.5809 N   0  0  0  0  0  0  0  0  0  0  0  0
   -0.6913    2.8573    5.5773 O   0  0  0  0  0  0  0  0  0  0  0  0
    1.0955    2.5810    6.9654 O   0  0  0  0  0  0  0  0  0  0  0  0
    2.4521    0.2633    0.2402 H   0  0  0  0  0  0  0  0  0  0  0  0
    0.0003    0.0000   -0.0001 H   0  0  0  0  0  0  0  0  0  0  0  0
    3.4678    0.5841    2.4895 H   0  0  0  0  0  0  0  0  0  0  0  0
   -1.4767    0.0627    1.9967 H   0  0  0  0  0  0  0  0  0  0  0  0
    2.4452   -0.2230    5.2646 H   0  0  0  0  0  0  0  0  0  0  0  0
    2.5217    1.5579    5.1065 H   0  0  0  0  0  0  0  0  0  0  0  0
    0.4373    0.1127    6.4574 H   0  0  0  0  0  0  0  0  0  0  0  0
   -1.4696    0.5335    4.6920 H   0  0  0  0  0  0  0  0  0  0  0  0
    0.9176    3.5013    7.2549 H   0  0  0  0  0  0  0  0  0  0  0  0
  1  2  1  0  0  0  0
  1  3  2  0  0  0  0
  2  4  2  0  0  0  0
  3  5  1  0  0  0  0
  4  6  1  0  0  0  0
  5  6  2  0  0  0  0
  5  8  1  0  0  0  0
  6 10  1  0  0  0  0
  7  9  1  0  0  0  0
  7 11  2  0  0  0  0
  7 12  1  0  0  0  0
  8  9  1  0  0  0  0
  9 10  1  0  0  0  0
  1 13  1  0  0  0  0
  2 14  1  0  0  0  0
  3 15  1  0  0  0  0
  4 16  1  0  0  0  0
  8 17  1  0  0  0  0
  8 18  1  0  0  0  0
  9 19  1  0  0  0  0
 10 20  1  0  0  0  0
 12 21  1  0  0  0  0
M  END
$$$$
frag.vs.396_0
  -OEChem-01121112263D

 31 32  0     1  0  0  0  0  0999 V2000
    1.1175    1.8433   -1.3295 C   0  0  0  0  0  0  0  0  0  0  0  0
    1.6333    2.0954    0.0813 C   0  0  0  0  0  0  0  0  0  0  0  0
    0.0644   -1.8945    1.4764 C   0  0  0  0  0  0  0  0  0  0  0  0
   -0.4997   -2.2152    0.0980 C   0  0  0  0  0  0  0  0  0  0  0  0
    0.4383    0.4790   -1.4361 C   0  0  0  0  0  0  0  0  0  0  0  0
    0.5401    1.8501    1.1220 C   0  0  0  0  0  0  0  0  0  0  0  0
    0.7798   -0.5454    1.4864 C   0  0  0  0  0  0  0  0  0  0  0  0
   -1.3806   -1.0619   -0.3958 C   0  0  1  0  0  0  0  0  0  0  0  0
   -0.6365    0.2988   -0.3428 C   0  0  1  0  0  0  0  0  0  0  0  0
   -1.9562   -1.3815   -1.7761 C   0  0  0  0  0  0  0  0  0  0  0  0
   -0.1002    0.5321    1.0164 N   0  0  2  0  0  0  0  0  0  0  0  0
   -2.7679   -0.2970   -2.1840 O   0  0  0  0  0  0  0  0  0  0  0  0
    0.3985    2.6272   -1.5984 H   0  0  0  0  0  0  0  0  0  0  0  0
    1.9424    1.9078   -2.0477 H   0  0  0  0  0  0  0  0  0  0  0  0
    2.4975    1.4504    0.2788 H   0  0  0  0  0  0  0  0  0  0  0  0
    1.9900    3.1288    0.1610 H   0  0  0  0  0  0  0  0  0  0  0  0
   -0.7502   -1.8846    2.2118 H   0  0  0  0  0  0  0  0  0  0  0  0
    0.7598   -2.6841    1.7833 H   0  0  0  0  0  0  0  0  0  0  0  0
    0.3230   -2.3984   -0.6038 H   0  0  0  0  0  0  0  0  0  0  0  0
   -1.0836   -3.1417    0.1505 H   0  0  0  0  0  0  0  0  0  0  0  0
   -0.0138    0.4031   -2.4311 H   0  0  0  0  0  0  0  0  0  0  0  0
    1.1973   -0.3091   -1.3737 H   0  0  0  0  0  0  0  0  0  0  0  0
    0.9494    1.9942    2.1295 H   0  0  0  0  0  0  0  0  0  0  0  0
   -0.2349    2.6199    1.0116 H   0  0  0  0  0  0  0  0  0  0  0  0
    1.0926   -0.3398    2.5175 H   0  0  0  0  0  0  0  0  0  0  0  0
    1.6936   -0.6192    0.8858 H   0  0  0  0  0  0  0  0  0  0  0  0
   -2.2368   -0.9870    0.2913 H   0  0  0  0  0  0  0  0  0  0  0  0
   -1.4029    1.0673   -0.5209 H   0  0  0  0  0  0  0  0  0  0  0  0
   -2.5596   -2.2863   -1.7230 H   0  0  0  0  0  0  0  0  0  0  0  0
   -1.1462   -1.5174   -2.4908 H   0  0  0  0  0  0  0  0  0  0  0  0
   -3.1236   -0.5193   -3.0617 H   0  0  0  0  0  0  0  0  0  0  0  0
  1  2  1  0  0  0  0
  1  5  1  0  0  0  0
  2  6  1  0  0  0  0
  3  4  1  0  0  0  0
  3  7  1  0  0  0  0
  4  8  1  0  0  0  0
  5  9  1  0  0  0  0
  6 11  1  0  0  0  0
  7 11  1  0  0  0  0
  8  9  1  0  0  0  0
  8 10  1  0  0  0  0
  9 11  1  0  0  0  0
 10 12  1  0  0  0  0
  1 13  1  0  0  0  0
  1 14  1  0  0  0  0
  2 15  1  0  0  0  0
  2 16  1  0  0  0  0
  3 17  1  0  0  0  0
  3 18  1  0  0  0  0
  4 19  1  0  0  0  0
  4 20  1  0  0  0  0
  5 21  1  0  0  0  0
  5 22  1  0  0  0  0
  6 23  1  0  0  0  0
  6 24  1  0  0  0  0
  7 25  1  0  0  0  0
  7 26  1  0  0  0  0
  8 27  1  0  0  0  0
  9 28  1  0  0  0  0
 10 29  1  0  0  0  0
 10 30  1  0  0  0  0
 12 31  1  0  0  0  0
M  END
$$$$
frag.vs.396_1
  -OEChem-01121112263D

 31 32  0     1  0  0  0  0  0999 V2000
   -1.1302    2.4574    0.1555 C   0  0  0  0  0  0  0  0  0  0  0  0
   -1.1510    2.1810   -1.3385 C   0  0  0  0  0  0  0  0  0  0  0  0
    1.0129   -2.2338   -0.7805 C   0  0  0  0  0  0  0  0  0  0  0  0
    1.0976   -2.0830    0.7302 C   0  0  0  0  0  0  0  0  0  0  0  0
   -1.0928    1.1495    0.9377 C   0  0  0  0  0  0  0  0  0  0  0  0
    0.0048    1.2683   -1.7351 C   0  0  0  0  0  0  0  0  0  0  0  0
    1.0557   -0.8725   -1.4641 C   0  0  0  0  0  0  0  0  0  0  0  0
    0.0084   -1.1298    1.2418 C   0  0  2  0  0  0  0  0  0  0  0  0
    0.0571    0.2261    0.4796 C   0  0  1  0  0  0  0  0  0  0  0  0
    0.1611   -0.9664    2.7577 C   0  0  0  0  0  0  0  0  0  0  0  0
   -0.0235    0.0032   -0.9844 N   0  0  1  0  0  0  0  0  0  0  0  0
    0.0096   -2.2370    3.3587 O   0  0  0  0  0  0  0  0  0  0  0  0
   -0.2489    3.0601    0.4068 H   0  0  0  0  0  0  0  0  0  0  0  0
   -2.0122    3.0408    0.4423 H   0  0  0  0  0  0  0  0  0  0  0  0
   -2.1046    1.7136   -1.6147 H   0  0  0  0  0  0  0  0  0  0  0  0
   -1.0850    3.1250   -1.8908 H   0  0  0  0  0  0  0  0  0  0  0  0
    1.8433   -2.8536   -1.1371 H   0  0  0  0  0  0  0  0  0  0  0  0
    0.0858   -2.7559   -1.0487 H   0  0  0  0  0  0  0  0  0  0  0  0
    0.9927   -3.0678    1.2009 H   0  0  0  0  0  0  0  0  0  0  0  0
    2.0896   -1.7015    1.0042 H   0  0  0  0  0  0  0  0  0  0  0  0
   -0.9879    1.3963    1.9995 H   0  0  0  0  0  0  0  0  0  0  0  0
   -2.0546    0.6327    0.8218 H   0  0  0  0  0  0  0  0  0  0  0  0
   -0.0822    1.0639   -2.8094 H   0  0  0  0  0  0  0  0  0  0  0  0
    0.9578    1.7914   -1.5807 H   0  0  0  0  0  0  0  0  0  0  0  0
    2.0369   -0.4074   -1.3002 H   0  0  0  0  0  0  0  0  0  0  0  0
    0.9505   -1.0345   -2.5440 H   0  0  0  0  0  0  0  0  0  0  0  0
   -0.9666   -1.6022    1.0558 H   0  0  0  0  0  0  0  0  0  0  0  0
    1.0095    0.7242    0.7138 H   0  0  0  0  0  0  0  0  0  0  0  0
   -0.6064   -0.2922    3.1316 H   0  0  0  0  0  0  0  0  0  0  0  0
    1.1484   -0.5706    2.9851 H   0  0  0  0  0  0  0  0  0  0  0  0
    0.1093   -2.1147    4.3189 H   0  0  0  0  0  0  0  0  0  0  0  0
  1  2  1  0  0  0  0
  1  5  1  0  0  0  0
  2  6  1  0  0  0  0
  3  4  1  0  0  0  0
  3  7  1  0  0  0  0
  4  8  1  0  0  0  0
  5  9  1  0  0  0  0
  6 11  1  0  0  0  0
  7 11  1  0  0  0  0
  8  9  1  0  0  0  0
  8 10  1  0  0  0  0
  9 11  1  0  0  0  0
 10 12  1  0  0  0  0
  1 13  1  0  0  0  0
  1 14  1  0  0  0  0
  2 15  1  0  0  0  0
  2 16  1  0  0  0  0
  3 17  1  0  0  0  0
  3 18  1  0  0  0  0
  4 19  1  0  0  0  0
  4 20  1  0  0  0  0
  5 21  1  0  0  0  0
  5 22  1  0  0  0  0
  6 23  1  0  0  0  0
  6 24  1  0  0  0  0
  7 25  1  0  0  0  0
  7 26  1  0  0  0  0
  8 27  1  0  0  0  0
  9 28  1  0  0  0  0
 10 29  1  0  0  0  0
 10 30  1  0  0  0  0
 12 31  1  0  0  0  0
M  END
$$$$
frag.vs.396_2
  -OEChem-01121112263D

 31 32  0     1  0  0  0  0  0999 V2000
    0.7788   -2.5946   -0.0390 C   0  0  0  0  0  0  0  0  0  0  0  0
    0.9159   -2.2335    1.4306 C   0  0  0  0  0  0  0  0  0  0  0  0
   -0.6592    2.3957    0.6715 C   0  0  0  0  0  0  0  0  0  0  0  0
   -0.8444    2.1658   -0.8200 C   0  0  0  0  0  0  0  0  0  0  0  0
    0.8768   -1.3441   -0.9052 C   0  0  0  0  0  0  0  0  0  0  0  0
   -0.0831   -1.1471    1.8156 C   0  0  0  0  0  0  0  0  0  0  0  0
   -0.8484    1.0977    1.4474 C   0  0  0  0  0  0  0  0  0  0  0  0
    0.0775    1.0421   -1.3141 C   0  0  1  0  0  0  0  0  0  0  0  0
   -0.1125   -0.2449   -0.4601 C   0  0  2  0  0  0  0  0  0  0  0  0
   -0.1769    0.8090   -2.8070 C   0  0  0  0  0  0  0  0  0  0  0  0
    0.0755    0.0538    0.9803 N   0  0  2  0  0  0  0  0  0  0  0  0
    0.0909    2.0140   -3.4964 O   0  0  0  0  0  0  0  0  0  0  0  0
    1.5575   -3.3106   -0.3244 H   0  0  0  0  0  0  0  0  0  0  0  0
   -0.1879   -3.0840   -0.2098 H   0  0  0  0  0  0  0  0  0  0  0  0
    0.7523   -3.1239    2.0478 H   0  0  0  0  0  0  0  0  0  0  0  0
    1.9373   -1.8866    1.6322 H   0  0  0  0  0  0  0  0  0  0  0  0
    0.3428    2.8004    0.8619 H   0  0  0  0  0  0  0  0  0  0  0  0
   -1.3783    3.1448    1.0220 H   0  0  0  0  0  0  0  0  0  0  0  0
   -1.8920    1.9086   -1.0228 H   0  0  0  0  0  0  0  0  0  0  0  0
   -0.6333    3.0961   -1.3608 H   0  0  0  0  0  0  0  0  0  0  0  0
    1.9042   -0.9588   -0.8669 H   0  0  0  0  0  0  0  0  0  0  0  0
    0.6836   -1.6382   -1.9423 H   0  0  0  0  0  0  0  0  0  0  0  0
   -1.1049   -1.5418    1.7397 H   0  0  0  0  0  0  0  0  0  0  0  0
    0.0881   -0.8915    2.8686 H   0  0  0  0  0  0  0  0  0  0  0  0
   -0.6645    1.3095    2.5079 H   0  0  0  0  0  0  0  0  0  0  0  0
   -1.8907    0.7634    1.3595 H   0  0  0  0  0  0  0  0  0  0  0  0
    1.1158    1.3861   -1.2044 H   0  0  0  0  0  0  0  0  0  0  0  0
   -1.1343   -0.6205   -0.6174 H   0  0  0  0  0  0  0  0  0  0  0  0
   -1.2154    0.5241   -2.9605 H   0  0  0  0  0  0  0  0  0  0  0  0
    0.4831    0.0253   -3.1723 H   0  0  0  0  0  0  0  0  0  0  0  0
   -0.0754    1.8481   -4.4407 H   0  0  0  0  0  0  0  0  0  0  0  0
  1  2  1  0  0  0  0
  1  5  1  0  0  0  0
  2  6  1  0  0  0  0
  3  4  1  0  0  0  0
  3  7  1  0  0  0  0
  4  8  1  0  0  0  0
  5  9  1  0  0  0  0
  6 11  1  0  0  0  0
  7 11  1  0  0  0  0
  8  9  1  0  0  0  0
  8 10  1  0  0  0  0
  9 11  1  0  0  0  0
 10 12  1  0  0  0  0
  1 13  1  0  0  0  0
  1 14  1  0  0  0  0
  2 15  1  0  0  0  0
  2 16  1  0  0  0  0
  3 17  1  0  0  0  0
  3 18  1  0  0  0  0
  4 19  1  0  0  0  0
  4 20  1  0  0  0  0
  5 21  1  0  0  0  0
  5 22  1  0  0  0  0
  6 23  1  0  0  0  0
  6 24  1  0  0  0  0
  7 25  1  0  0  0  0
  7 26  1  0  0  0  0
  8 27  1  0  0  0  0
  9 28  1  0  0  0  0
 10 29  1  0  0  0  0
 10 30  1  0  0  0  0
 12 31  1  0  0  0  0
M  END
$$$$
frag.vs.396_3
  -OEChem-01121112263D

 31 32  0     1  0  0  0  0  0999 V2000
    0.0992   -2.5621    0.9663 C   0  0  0  0  0  0  0  0  0  0  0  0
    0.6176   -1.6868    2.0978 C   0  0  0  0  0  0  0  0  0  0  0  0
   -0.3682    2.4674   -0.4745 C   0  0  0  0  0  0  0  0  0  0  0  0
   -0.8689    1.6559   -1.6628 C   0  0  0  0  0  0  0  0  0  0  0  0
    0.2758   -1.8426   -0.3650 C   0  0  0  0  0  0  0  0  0  0  0  0
   -0.0440   -0.3111    2.0695 C   0  0  0  0  0  0  0  0  0  0  0  0
   -0.5227    1.6860    0.8279 C   0  0  0  0  0  0  0  0  0  0  0  0
   -0.2025    0.2727   -1.7150 C   0  0  2  0  0  0  0  0  0  0  0  0
   -0.3805   -0.4474   -0.3484 C   0  0  2  0  0  0  0  0  0  0  0  0
    1.2585    0.3994   -2.1702 C   0  0  0  0  0  0  0  0  0  0  0  0
    0.1357    0.3688    0.7744 N   0  0  2  0  0  0  0  0  0  0  0  0
    1.2695    0.9716   -3.4618 O   0  0  0  0  0  0  0  0  0  0  0  0
    0.6373   -3.5163    0.9522 H   0  0  0  0  0  0  0  0  0  0  0  0
   -0.9613   -2.7905    1.1272 H   0  0  0  0  0  0  0  0  0  0  0  0
    0.4217   -2.1724    3.0604 H   0  0  0  0  0  0  0  0  0  0  0  0
    1.7057   -1.5755    2.0105 H   0  0  0  0  0  0  0  0  0  0  0  0
    0.6829    2.7433   -0.6210 H   0  0  0  0  0  0  0  0  0  0  0  0
   -0.9321    3.4051   -0.4081 H   0  0  0  0  0  0  0  0  0  0  0  0
   -1.9554    1.5265   -1.5750 H   0  0  0  0  0  0  0  0  0  0  0  0
   -0.6948    2.2077   -2.5938 H   0  0  0  0  0  0  0  0  0  0  0  0
    1.3502   -1.7646   -0.5691 H   0  0  0  0  0  0  0  0  0  0  0  0
   -0.1609   -2.4504   -1.1663 H   0  0  0  0  0  0  0  0  0  0  0  0
   -1.1115   -0.4207    2.3037 H   0  0  0  0  0  0  0  0  0  0  0  0
    0.4015    0.2956    2.8674 H   0  0  0  0  0  0  0  0  0  0  0  0
   -0.0831    2.2844    1.6354 H   0  0  0  0  0  0  0  0  0  0  0  0
   -1.5916    1.5739    1.0546 H   0  0  0  0  0  0  0  0  0  0  0  0
   -0.7267   -0.3137   -2.4819 H   0  0  0  0  0  0  0  0  0  0  0  0
   -1.4607   -0.5975   -0.1992 H   0  0  0  0  0  0  0  0  0  0  0  0
    1.7146   -0.5864   -2.2017 H   0  0  0  0  0  0  0  0  0  0  0  0
    1.7986    1.0415   -1.4797 H   0  0  0  0  0  0  0  0  0  0  0  0
    2.2004    1.0457   -3.7367 H   0  0  0  0  0  0  0  0  0  0  0  0
  1  2  1  0  0  0  0
  1  5  1  0  0  0  0
  2  6  1  0  0  0  0
  3  4  1  0  0  0  0
  3  7  1  0  0  0  0
  4  8  1  0  0  0  0
  5  9  1  0  0  0  0
  6 11  1  0  0  0  0
  7 11  1  0  0  0  0
  8  9  1  0  0  0  0
  8 10  1  0  0  0  0
  9 11  1  0  0  0  0
 10 12  1  0  0  0  0
  1 13  1  0  0  0  0
  1 14  1  0  0  0  0
  2 15  1  0  0  0  0
  2 16  1  0  0  0  0
  3 17  1  0  0  0  0
  3 18  1  0  0  0  0
  4 19  1  0  0  0  0
  4 20  1  0  0  0  0
  5 21  1  0  0  0  0
  5 22  1  0  0  0  0
  6 23  1  0  0  0  0
  6 24  1  0  0  0  0
  7 25  1  0  0  0  0
  7 26  1  0  0  0  0
  8 27  1  0  0  0  0
  9 28  1  0  0  0  0
 10 29  1  0  0  0  0
 10 30  1  0  0  0  0
 12 31  1  0  0  0  0
M  END
$$$$
frag.vs.397
  -OEChem-01121112263D

 21 22  0     0  0  0  0  0  0999 V2000
    1.9015   -1.1722    0.2269 C   0  0  0  0  0  0  0  0  0  0  0  0
    0.9645   -0.3081   -0.3773 C   0  0  0  0  0  0  0  0  0  0  0  0
    2.9353   -1.2157   -0.6711 C   0  0  0  0  0  0  0  0  0  0  0  0
    4.6608   -0.8869   -2.8559 C   0  0  0  0  0  0  0  0  0  0  0  0
    4.9824   -1.6732   -1.8079 C   0  0  0  0  0  0  0  0  0  0  0  0
    3.3546   -0.1716   -2.8583 C   0  0  0  0  0  0  0  0  0  0  0  0
   -0.3473    0.0978    0.1563 C   0  0  0  0  0  0  0  0  0  0  0  0
    6.2861   -2.4138   -1.7592 C   0  0  0  0  0  0  0  0  0  0  0  0
    1.3692    0.1603   -1.5635 N   0  0  0  0  0  0  0  0  0  0  0  0
    2.5814   -0.4091   -1.7245 N   0  0  0  0  0  0  0  0  0  0  0  0
    4.1299   -1.8376   -0.7251 N   0  0  0  0  0  0  0  0  0  0  0  0
    2.9499    0.5643   -3.7423 O   0  0  0  0  0  0  0  0  0  0  0  0
    1.8321   -1.6861    1.1747 H   0  0  0  0  0  0  0  0  0  0  0  0
    5.3141   -0.7462   -3.7088 H   0  0  0  0  0  0  0  0  0  0  0  0
   -0.2646    1.0114    0.7693 H   0  0  0  0  0  0  0  0  0  0  0  0
   -1.0789    0.3005   -0.6459 H   0  0  0  0  0  0  0  0  0  0  0  0
   -0.8010   -0.6868    0.7878 H   0  0  0  0  0  0  0  0  0  0  0  0
    7.0389   -1.7917   -1.2807 H   0  0  0  0  0  0  0  0  0  0  0  0
    6.6034   -2.6574   -2.7709 H   0  0  0  0  0  0  0  0  0  0  0  0
    6.1596   -3.3342   -1.1933 H   0  0  0  0  0  0  0  0  0  0  0  0
    4.4548   -2.4477    0.0183 H   0  0  0  0  0  0  0  0  0  0  0  0
  1  2  1  0  0  0  0
  1  3  2  0  0  0  0
  2  7  1  0  0  0  0
  2  9  2  0  0  0  0
  3 10  1  0  0  0  0
  3 11  1  0  0  0  0
  4  5  2  0  0  0  0
  4  6  1  0  0  0  0
  5  8  1  0  0  0  0
  5 11  1  0  0  0  0
  6 10  1  0  0  0  0
  6 12  2  0  0  0  0
  9 10  1  0  0  0  0
  1 13  1  0  0  0  0
  4 14  1  0  0  0  0
  7 15  1  0  0  0  0
  7 16  1  0  0  0  0
  7 17  1  0  0  0  0
  8 18  1  0  0  0  0
  8 19  1  0  0  0  0
  8 20  1  0  0  0  0
 11 21  1  0  0  0  0
M  END
$$$$
frag.vs.398
  -OEChem-01121112263D

 21 22  0     0  0  0  0  0  0999 V2000
    4.5210    2.8009   -1.1664 C   0  0  0  0  0  0  0  0  0  0  0  0
    2.5260    2.3938   -1.6787 C   0  0  0  0  0  0  0  0  0  0  0  0
    0.7520    0.6511   -0.4245 C   0  0  0  0  0  0  0  0  0  0  0  0
    1.9962    0.7708    0.0603 C   0  0  0  0  0  0  0  0  0  0  0  0
    0.4431    1.4910   -1.6216 C   0  0  0  0  0  0  0  0  0  0  0  0
   -0.9490    1.3794   -2.1918 C   0  0  0  0  0  0  0  0  0  0  0  0
    5.9629    4.5971   -2.6522 C   0  0  0  0  0  0  0  0  0  0  0  0
    3.5526    3.1263   -2.0611 N   0  0  0  0  0  0  0  0  0  0  0  0
    4.1798    1.9102   -0.2395 N   0  0  0  0  0  0  0  0  0  0  0  0
    1.2722    2.3056   -2.2068 N   0  0  0  0  0  0  0  0  0  0  0  0
    2.8901    1.6398   -0.5608 N   0  0  0  0  0  0  0  0  0  0  0  0
    2.3989    0.0459    1.1624 O   0  0  0  0  0  0  0  0  0  0  0  0
    6.1204    3.5008   -1.2175 S   0  0  0  0  0  0  0  0  0  0  0  0
    0.0026   -0.0015    0.0022 H   0  0  0  0  0  0  0  0  0  0  0  0
   -1.5883    2.1130   -1.7121 H   0  0  0  0  0  0  0  0  0  0  0  0
   -1.3286    0.3795   -2.0083 H   0  0  0  0  0  0  0  0  0  0  0  0
   -0.9101    1.5629   -3.2605 H   0  0  0  0  0  0  0  0  0  0  0  0
    6.9052    5.1234   -2.8231 H   0  0  0  0  0  0  0  0  0  0  0  0
    5.1724    5.3303   -2.4739 H   0  0  0  0  0  0  0  0  0  0  0  0
    5.7140    4.0120   -3.5408 H   0  0  0  0  0  0  0  0  0  0  0  0
    1.6736   -0.5046    1.4750 H   0  0  0  0  0  0  0  0  0  0  0  0
  1  8  1  0  0  0  0
  1  9  2  0  0  0  0
  1 13  1  0  0  0  0
  2  8  2  0  0  0  0
  2 10  1  0  0  0  0
  2 11  1  0  0  0  0
  3  4  2  0  0  0  0
  3  5  1  0  0  0  0
  4 11  1  0  0  0  0
  4 12  1  0  0  0  0
  5  6  1  0  0  0  0
  5 10  2  0  0  0  0
  7 13  1  0  0  0  0
  9 11  1  0  0  0  0
  3 14  1  0  0  0  0
  6 15  1  0  0  0  0
  6 16  1  0  0  0  0
  6 17  1  0  0  0  0
  7 18  1  0  0  0  0
  7 19  1  0  0  0  0
  7 20  1  0  0  0  0
 12 21  1  0  0  0  0
M  END
$$$$
frag.vs.399
  -OEChem-01121112263D

 23 24  0     0  0  0  0  0  0999 V2000
    2.1340   -0.5233    0.4181 C   0  0  0  0  0  0  0  0  0  0  0  0
    0.7753   -0.3190    0.6816 C   0  0  0  0  0  0  0  0  0  0  0  0
    2.6708   -0.9216    1.6209 C   0  0  0  0  0  0  0  0  0  0  0  0
    4.1054   -1.5933    3.2174 C   0  0  0  0  0  0  0  0  0  0  0  0
    3.0634   -1.6479    4.2840 C   0  0  0  0  0  0  0  0  0  0  0  0
    1.8233   -1.3065    3.8898 C   0  0  0  0  0  0  0  0  0  0  0  0
    3.4274   -2.0493    5.6463 C   0  0  0  0  0  0  0  0  0  0  0  0
   -0.2658    0.1145   -0.2653 C   0  0  0  0  0  0  0  0  0  0  0  0
    0.6002   -1.2788    4.7698 C   0  0  0  0  0  0  0  0  0  0  0  0
    0.4517   -0.5631    1.9496 N   0  0  0  0  0  0  0  0  0  0  0  0
    3.9391   -1.2581    1.9765 N   0  0  0  0  0  0  0  0  0  0  0  0
    1.6213   -0.9386    2.5426 N   0  0  0  0  0  0  0  0  0  0  0  0
    2.8663   -1.6580    6.6528 O   0  0  0  0  0  0  0  0  0  0  0  0
    4.4675   -2.9073    5.6014 O   0  0  0  0  0  0  0  0  0  0  0  0
    2.6642   -0.4014   -0.5156 H   0  0  0  0  0  0  0  0  0  0  0  0
    5.1224   -1.8696    3.5431 H   0  0  0  0  0  0  0  0  0  0  0  0
   -0.7427   -0.7493   -0.7597 H   0  0  0  0  0  0  0  0  0  0  0  0
   -1.0640    0.6962    0.2296 H   0  0  0  0  0  0  0  0  0  0  0  0
    0.1378    0.7698   -1.0579 H   0  0  0  0  0  0  0  0  0  0  0  0
    0.5050   -0.2940    5.2159 H   0  0  0  0  0  0  0  0  0  0  0  0
    0.7038   -2.0291    5.5476 H   0  0  0  0  0  0  0  0  0  0  0  0
   -0.2762   -1.4991    4.1683 H   0  0  0  0  0  0  0  0  0  0  0  0
    4.7406   -3.1989    6.4973 H   0  0  0  0  0  0  0  0  0  0  0  0
  1  2  1  0  0  0  0
  1  3  2  0  0  0  0
  2  8  1  0  0  0  0
  2 10  2  0  0  0  0
  3 11  1  0  0  0  0
  3 12  1  0  0  0  0
  4  5  1  0  0  0  0
  4 11  2  0  0  0  0
  5  6  2  0  0  0  0
  5  7  1  0  0  0  0
  6  9  1  0  0  0  0
  6 12  1  0  0  0  0
  7 13  2  0  0  0  0
  7 14  1  0  0  0  0
 10 12  1  0  0  0  0
  1 15  1  0  0  0  0
  4 16  1  0  0  0  0
  8 17  1  0  0  0  0
  8 18  1  0  0  0  0
  8 19  1  0  0  0  0
  9 20  1  0  0  0  0
  9 21  1  0  0  0  0
  9 22  1  0  0  0  0
 14 23  1  0  0  0  0
M  END
$$$$
frag.vs.400
  -OEChem-01121112263D

 29 30  0     0  0  0  0  0  0999 V2000
    2.1340   -0.5233    0.4181 C   0  0  0  0  0  0  0  0  0  0  0  0
    0.7753   -0.3190    0.6816 C   0  0  0  0  0  0  0  0  0  0  0  0
    2.6708   -0.9216    1.6209 C   0  0  0  0  0  0  0  0  0  0  0  0
    4.1054   -1.5933    3.2174 C   0  0  0  0  0  0  0  0  0  0  0  0
    3.0634   -1.6479    4.2840 C   0  0  0  0  0  0  0  0  0  0  0  0
    1.8233   -1.3065    3.8898 C   0  0  0  0  0  0  0  0  0  0  0  0
    3.4274   -2.0493    5.6463 C   0  0  0  0  0  0  0  0  0  0  0  0
   -0.2658    0.1145   -0.2653 C   0  0  0  0  0  0  0  0  0  0  0  0
    0.6002   -1.2788    4.7698 C   0  0  0  0  0  0  0  0  0  0  0  0
    6.1060   -4.3412    6.5999 C   0  0  0  0  0  0  0  0  0  0  0  0
    4.9469   -3.3975    6.8397 C   0  0  0  0  0  0  0  0  0  0  0  0
    0.4517   -0.5631    1.9496 N   0  0  0  0  0  0  0  0  0  0  0  0
    3.9391   -1.2581    1.9765 N   0  0  0  0  0  0  0  0  0  0  0  0
    1.6213   -0.9386    2.5426 N   0  0  0  0  0  0  0  0  0  0  0  0
    2.8529   -1.6463    6.6448 O   0  0  0  0  0  0  0  0  0  0  0  0
    4.4729   -2.9115    5.5796 O   0  0  0  0  0  0  0  0  0  0  0  0
    2.6642   -0.4014   -0.5156 H   0  0  0  0  0  0  0  0  0  0  0  0
    5.1224   -1.8696    3.5431 H   0  0  0  0  0  0  0  0  0  0  0  0
   -0.7427   -0.7493   -0.7597 H   0  0  0  0  0  0  0  0  0  0  0  0
   -1.0640    0.6962    0.2296 H   0  0  0  0  0  0  0  0  0  0  0  0
    0.1378    0.7698   -1.0579 H   0  0  0  0  0  0  0  0  0  0  0  0
    0.5050   -0.2940    5.2159 H   0  0  0  0  0  0  0  0  0  0  0  0
    0.7038   -2.0291    5.5476 H   0  0  0  0  0  0  0  0  0  0  0  0
   -0.2762   -1.4991    4.1683 H   0  0  0  0  0  0  0  0  0  0  0  0
    5.7947   -5.1948    5.9914 H   0  0  0  0  0  0  0  0  0  0  0  0
    6.9257   -3.8241    6.0904 H   0  0  0  0  0  0  0  0  0  0  0  0
    6.5050   -4.7115    7.5501 H   0  0  0  0  0  0  0  0  0  0  0  0
    5.2649   -2.5460    7.4488 H   0  0  0  0  0  0  0  0  0  0  0  0
    4.1284   -3.9159    7.3481 H   0  0  0  0  0  0  0  0  0  0  0  0
  1  2  1  0  0  0  0
  1  3  2  0  0  0  0
  2  8  1  0  0  0  0
  2 12  2  0  0  0  0
  3 13  1  0  0  0  0
  3 14  1  0  0  0  0
  4  5  1  0  0  0  0
  4 13  2  0  0  0  0
  5  6  2  0  0  0  0
  5  7  1  0  0  0  0
  6  9  1  0  0  0  0
  6 14  1  0  0  0  0
  7 15  2  0  0  0  0
  7 16  1  0  0  0  0
 10 11  1  0  0  0  0
 11 16  1  0  0  0  0
 12 14  1  0  0  0  0
  1 17  1  0  0  0  0
  4 18  1  0  0  0  0
  8 19  1  0  0  0  0
  8 20  1  0  0  0  0
  8 21  1  0  0  0  0
  9 22  1  0  0  0  0
  9 23  1  0  0  0  0
  9 24  1  0  0  0  0
 10 25  1  0  0  0  0
 10 26  1  0  0  0  0
 10 27  1  0  0  0  0
 11 28  1  0  0  0  0
 11 29  1  0  0  0  0
M  END
$$$$
frag.vs.401
  -OEChem-01121112263D

 17 18  0     0  0  0  0  0  0999 V2000
    4.5210    2.8009   -1.1664 C   0  0  0  0  0  0  0  0  0  0  0  0
    2.5260    2.3938   -1.6787 C   0  0  0  0  0  0  0  0  0  0  0  0
    0.7520    0.6511   -0.4245 C   0  0  0  0  0  0  0  0  0  0  0  0
    1.9962    0.7708    0.0603 C   0  0  0  0  0  0  0  0  0  0  0  0
    0.4431    1.4910   -1.6216 C   0  0  0  0  0  0  0  0  0  0  0  0
   -0.9517    1.3642   -2.1790 C   0  0  0  0  0  0  0  0  0  0  0  0
    3.5526    3.1263   -2.0611 N   0  0  0  0  0  0  0  0  0  0  0  0
    4.1798    1.9102   -0.2395 N   0  0  0  0  0  0  0  0  0  0  0  0
    1.2722    2.3056   -2.2068 N   0  0  0  0  0  0  0  0  0  0  0  0
    2.8901    1.6398   -0.5608 N   0  0  0  0  0  0  0  0  0  0  0  0
    2.3990    0.0453    1.1619 O   0  0  0  0  0  0  0  0  0  0  0  0
    5.5126    3.2278   -1.1880 H   0  0  0  0  0  0  0  0  0  0  0  0
   -0.0010   -0.0003   -0.0018 H   0  0  0  0  0  0  0  0  0  0  0  0
   -1.5948    2.0933   -1.6968 H   0  0  0  0  0  0  0  0  0  0  0  0
   -1.3211    0.3613   -1.9891 H   0  0  0  0  0  0  0  0  0  0  0  0
   -0.9247    1.5441   -3.2491 H   0  0  0  0  0  0  0  0  0  0  0  0
    1.6738   -0.5056    1.4742 H   0  0  0  0  0  0  0  0  0  0  0  0
  1  7  1  0  0  0  0
  1  8  2  0  0  0  0
  2  7  2  0  0  0  0
  2  9  1  0  0  0  0
  2 10  1  0  0  0  0
  3  4  2  0  0  0  0
  3  5  1  0  0  0  0
  4 10  1  0  0  0  0
  4 11  1  0  0  0  0
  5  6  1  0  0  0  0
  5  9  2  0  0  0  0
  8 10  1  0  0  0  0
  1 12  1  0  0  0  0
  3 13  1  0  0  0  0
  6 14  1  0  0  0  0
  6 15  1  0  0  0  0
  6 16  1  0  0  0  0
 11 17  1  0  0  0  0
M  END
$$$$
frag.vs.402
  -OEChem-01121112263D

 20 21  0     0  0  0  0  0  0999 V2000
    1.4882    1.0885    1.1102 C   0  0  0  0  0  0  0  0  0  0  0  0
    0.1958    0.6327    0.8608 C   0  0  0  0  0  0  0  0  0  0  0  0
    1.7434    1.9019    2.2157 C   0  0  0  0  0  0  0  0  0  0  0  0
   -0.8472    0.9882    1.7157 C   0  0  0  0  0  0  0  0  0  0  0  0
    0.9287    3.0838    4.2034 C   0  0  0  0  0  0  0  0  0  0  0  0
   -1.6080    2.1925    3.7189 C   0  0  0  0  0  0  0  0  0  0  0  0
    0.7051    2.2697    3.0869 C   0  0  0  0  0  0  0  0  0  0  0  0
   -0.6020    1.8063    2.8310 C   0  0  0  0  0  0  0  0  0  0  0  0
   -0.1488    3.4025    5.0156 C   0  0  0  0  0  0  0  0  0  0  0  0
    0.0419    4.2433    6.1852 C   0  0  0  0  0  0  0  0  0  0  0  0
   -1.4124    2.9776    4.8022 N   0  0  0  0  0  0  0  0  0  0  0  0
    1.1178    4.7294    6.5515 O   0  0  0  0  0  0  0  0  0  0  0  0
   -1.1166    4.4576    6.8683 O   0  0  0  0  0  0  0  0  0  0  0  0
    2.2994    0.8109    0.4432 H   0  0  0  0  0  0  0  0  0  0  0  0
   -0.0004    0.0013   -0.0009 H   0  0  0  0  0  0  0  0  0  0  0  0
    2.7601    2.2475    2.3902 H   0  0  0  0  0  0  0  0  0  0  0  0
   -1.8503    0.6236    1.5063 H   0  0  0  0  0  0  0  0  0  0  0  0
    1.9228    3.4592    4.4310 H   0  0  0  0  0  0  0  0  0  0  0  0
   -2.6366    1.8710    3.5798 H   0  0  0  0  0  0  0  0  0  0  0  0
   -0.9985    5.0253    7.6596 H   0  0  0  0  0  0  0  0  0  0  0  0
  1  2  1  0  0  0  0
  1  3  2  0  0  0  0
  2  4  2  0  0  0  0
  3  7  1  0  0  0  0
  4  8  1  0  0  0  0
  5  7  1  0  0  0  0
  5  9  2  0  0  0  0
  6  8  1  0  0  0  0
  6 11  2  0  0  0  0
  7  8  2  0  0  0  0
  9 10  1  0  0  0  0
  9 11  1  0  0  0  0
 10 12  2  0  0  0  0
 10 13  1  0  0  0  0
  1 14  1  0  0  0  0
  2 15  1  0  0  0  0
  3 16  1  0  0  0  0
  4 17  1  0  0  0  0
  5 18  1  0  0  0  0
  6 19  1  0  0  0  0
 13 20  1  0  0  0  0
M  END
$$$$
frag.vs.403
  -OEChem-01121112263D

 20 21  0     0  0  0  0  0  0999 V2000
    0.1298    2.0977   -0.4527 C   0  0  0  0  0  0  0  0  0  0  0  0
   -0.5469    0.8976   -0.2738 C   0  0  0  0  0  0  0  0  0  0  0  0
   -0.5812    3.2417   -0.8037 C   0  0  0  0  0  0  0  0  0  0  0  0
   -2.7151    4.3237   -1.3301 C   0  0  0  0  0  0  0  0  0  0  0  0
   -1.9323    0.8440   -0.4461 C   0  0  0  0  0  0  0  0  0  0  0  0
   -4.0902    4.2376   -1.4936 C   0  0  0  0  0  0  0  0  0  0  0  0
   -1.9747    3.1875   -0.9770 C   0  0  0  0  0  0  0  0  0  0  0  0
   -2.6683    1.9725   -0.7968 C   0  0  0  0  0  0  0  0  0  0  0  0
   -4.6804    3.0058   -1.2959 C   0  0  0  0  0  0  0  0  0  0  0  0
   -6.1161    2.8483   -1.4516 C   0  0  0  0  0  0  0  0  0  0  0  0
   -4.0027    1.8858   -0.9548 N   0  0  0  0  0  0  0  0  0  0  0  0
   -6.9076    3.7472   -1.7584 O   0  0  0  0  0  0  0  0  0  0  0  0
   -6.5292    1.5711   -1.2215 O   0  0  0  0  0  0  0  0  0  0  0  0
    1.2064    2.1431   -0.3196 H   0  0  0  0  0  0  0  0  0  0  0  0
    0.0004    0.0002   -0.0002 H   0  0  0  0  0  0  0  0  0  0  0  0
   -0.0419    4.1763   -0.9412 H   0  0  0  0  0  0  0  0  0  0  0  0
   -2.2237    5.2824   -1.4800 H   0  0  0  0  0  0  0  0  0  0  0  0
   -2.4392   -0.1082   -0.3005 H   0  0  0  0  0  0  0  0  0  0  0  0
   -4.6688    5.1130   -1.7674 H   0  0  0  0  0  0  0  0  0  0  0  0
   -7.4977    1.4541   -1.3250 H   0  0  0  0  0  0  0  0  0  0  0  0
  1  2  1  0  0  0  0
  1  3  2  0  0  0  0
  2  5  2  0  0  0  0
  3  7  1  0  0  0  0
  4  6  1  0  0  0  0
  4  7  2  0  0  0  0
  5  8  1  0  0  0  0
  6  9  2  0  0  0  0
  7  8  1  0  0  0  0
  8 11  2  0  0  0  0
  9 10  1  0  0  0  0
  9 11  1  0  0  0  0
 10 12  2  0  0  0  0
 10 13  1  0  0  0  0
  1 14  1  0  0  0  0
  2 15  1  0  0  0  0
  3 16  1  0  0  0  0
  4 17  1  0  0  0  0
  5 18  1  0  0  0  0
  6 19  1  0  0  0  0
 13 20  1  0  0  0  0
M  END
$$$$
frag.vs.404_0
  -OEChem-01121112263D

 25 26  0     1  0  0  0  0  0999 V2000
    0.4256    1.4713    3.3075 C   0  0  0  0  0  0  0  0  0  0  0  0
    2.3157    0.5807    2.0945 C   0  0  0  0  0  0  0  0  0  0  0  0
    1.2004    1.5384    4.4655 C   0  0  0  0  0  0  0  0  0  0  0  0
    3.0905    0.6478    3.2525 C   0  0  0  0  0  0  0  0  0  0  0  0
    0.9833    0.9924    2.1220 C   0  0  0  0  0  0  0  0  0  0  0  0
    2.5328    1.1267    4.4379 C   0  0  0  0  0  0  0  0  0  0  0  0
   -1.2965   -1.9458   -0.8881 C   0  0  0  0  0  0  0  0  0  0  0  0
    0.4290   -0.2520   -1.4794 C   0  0  0  0  0  0  0  0  0  0  0  0
    0.1450    0.9210    0.8672 C   0  0  2  0  0  0  0  0  0  0  0  0
   -0.8500   -0.5332   -0.7030 C   0  0  2  0  0  0  0  0  0  0  0  0
   -0.5532   -0.3634    0.7201 N   0  0  0  0  0  0  0  0  0  0  0  0
   -1.3724   -2.7801    0.0016 O   0  0  0  0  0  0  0  0  0  0  0  0
   -1.6068   -2.1836   -2.1859 O   0  0  0  0  0  0  0  0  0  0  0  0
    1.1424    1.1810   -0.6388 S   0  0  0  0  0  0  0  0  0  0  0  0
    3.4884    1.2098    5.8665 Cl  0  0  0  0  0  0  0  0  0  0  0  0
   -0.6118    1.7937    3.3371 H   0  0  0  0  0  0  0  0  0  0  0  0
    2.7578    0.2066    1.1748 H   0  0  0  0  0  0  0  0  0  0  0  0
    0.7524    1.9141    5.3818 H   0  0  0  0  0  0  0  0  0  0  0  0
    4.1273    0.3235    3.2160 H   0  0  0  0  0  0  0  0  0  0  0  0
    1.1391   -1.0849   -1.4392 H   0  0  0  0  0  0  0  0  0  0  0  0
    0.2241   -0.0214   -2.5290 H   0  0  0  0  0  0  0  0  0  0  0  0
   -0.6031    1.7317    0.9230 H   0  0  0  0  0  0  0  0  0  0  0  0
   -1.6651    0.1247   -1.0072 H   0  0  0  0  0  0  0  0  0  0  0  0
    0.0853   -1.1092    1.0028 H   0  0  0  0  0  0  0  0  0  0  0  0
   -1.9011   -3.1084   -2.3288 H   0  0  0  0  0  0  0  0  0  0  0  0
  1  3  1  0  0  0  0
  1  5  2  0  0  0  0
  2  4  2  0  0  0  0
  2  5  1  0  0  0  0
  3  6  2  0  0  0  0
  4  6  1  0  0  0  0
  5  9  1  0  0  0  0
  6 15  1  0  0  0  0
  7 10  1  0  0  0  0
  7 12  2  0  0  0  0
  7 13  1  0  0  0  0
  8 10  1  0  0  0  0
  8 14  1  0  0  0  0
  9 11  1  0  0  0  0
  9 14  1  0  0  0  0
 10 11  1  0  0  0  0
  1 16  1  0  0  0  0
  2 17  1  0  0  0  0
  3 18  1  0  0  0  0
  4 19  1  0  0  0  0
  8 20  1  0  0  0  0
  8 21  1  0  0  0  0
  9 22  1  0  0  0  0
 10 23  1  0  0  0  0
 11 24  1  0  0  0  0
 13 25  1  0  0  0  0
M  END
$$$$
frag.vs.404_1
  -OEChem-01121112263D

 25 26  0     1  0  0  0  0  0999 V2000
   -3.1106   -1.5270    1.0541 C   0  0  0  0  0  0  0  0  0  0  0  0
   -1.1620   -2.8936    0.6392 C   0  0  0  0  0  0  0  0  0  0  0  0
   -3.8641   -2.6753    1.2977 C   0  0  0  0  0  0  0  0  0  0  0  0
   -1.9154   -4.0419    0.8827 C   0  0  0  0  0  0  0  0  0  0  0  0
   -1.7595   -1.6361    0.7248 C   0  0  0  0  0  0  0  0  0  0  0  0
   -3.2665   -3.9327    1.2120 C   0  0  0  0  0  0  0  0  0  0  0  0
    1.2008    1.7364    0.6554 C   0  0  0  0  0  0  0  0  0  0  0  0
    0.7723    0.3557   -1.4070 C   0  0  0  0  0  0  0  0  0  0  0  0
   -0.9423   -0.3921    0.4625 C   0  0  1  0  0  0  0  0  0  0  0  0
    1.2774    0.3746    0.0303 C   0  0  2  0  0  0  0  0  0  0  0  0
    0.4714   -0.5567    0.8200 N   0  0  0  0  0  0  0  0  0  0  0  0
    0.5420    2.0181    1.6453 O   0  0  0  0  0  0  0  0  0  0  0  0
    1.9639    2.6218   -0.0309 O   0  0  0  0  0  0  0  0  0  0  0  0
   -1.0201    0.1182   -1.2859 S   0  0  0  0  0  0  0  0  0  0  0  0
   -4.1961   -5.3491    1.5127 Cl  0  0  0  0  0  0  0  0  0  0  0  0
   -3.5835   -0.5508    1.1226 H   0  0  0  0  0  0  0  0  0  0  0  0
   -0.1098   -2.9872    0.3834 H   0  0  0  0  0  0  0  0  0  0  0  0
   -4.9157   -2.5747    1.5535 H   0  0  0  0  0  0  0  0  0  0  0  0
   -1.4363   -5.0150    0.8122 H   0  0  0  0  0  0  0  0  0  0  0  0
    0.9932    1.2800   -1.9488 H   0  0  0  0  0  0  0  0  0  0  0  0
    1.1922   -0.4917   -1.9584 H   0  0  0  0  0  0  0  0  0  0  0  0
   -1.3827    0.4311    1.0693 H   0  0  0  0  0  0  0  0  0  0  0  0
    2.3307    0.0732    0.0643 H   0  0  0  0  0  0  0  0  0  0  0  0
    0.6172   -0.4316    1.8203 H   0  0  0  0  0  0  0  0  0  0  0  0
    1.9256    3.5200    0.3617 H   0  0  0  0  0  0  0  0  0  0  0  0
  1  3  1  0  0  0  0
  1  5  2  0  0  0  0
  2  4  2  0  0  0  0
  2  5  1  0  0  0  0
  3  6  2  0  0  0  0
  4  6  1  0  0  0  0
  5  9  1  0  0  0  0
  6 15  1  0  0  0  0
  7 10  1  0  0  0  0
  7 12  2  0  0  0  0
  7 13  1  0  0  0  0
  8 10  1  0  0  0  0
  8 14  1  0  0  0  0
  9 11  1  0  0  0  0
  9 14  1  0  0  0  0
 10 11  1  0  0  0  0
  1 16  1  0  0  0  0
  2 17  1  0  0  0  0
  3 18  1  0  0  0  0
  4 19  1  0  0  0  0
  8 20  1  0  0  0  0
  8 21  1  0  0  0  0
  9 22  1  0  0  0  0
 10 23  1  0  0  0  0
 11 24  1  0  0  0  0
 13 25  1  0  0  0  0
M  END
$$$$
frag.vs.404_2
  -OEChem-01121112263D

 25 26  0     1  0  0  0  0  0999 V2000
    3.5034    0.4537    0.5410 C   0  0  0  0  0  0  0  0  0  0  0  0
    2.8247   -1.3281   -0.9427 C   0  0  0  0  0  0  0  0  0  0  0  0
    4.8240    0.0105    0.4692 C   0  0  0  0  0  0  0  0  0  0  0  0
    4.1453   -1.7714   -1.0146 C   0  0  0  0  0  0  0  0  0  0  0  0
    2.5037   -0.2157   -0.1649 C   0  0  0  0  0  0  0  0  0  0  0  0
    5.1450   -1.1020   -0.3086 C   0  0  0  0  0  0  0  0  0  0  0  0
   -1.5874    1.1350    1.0195 C   0  0  0  0  0  0  0  0  0  0  0  0
   -1.3234   -0.5949   -0.8001 C   0  0  0  0  0  0  0  0  0  0  0  0
    1.0709    0.2659   -0.0886 C   0  0  2  0  0  0  0  0  0  0  0  0
   -1.1250   -0.2482    0.6698 C   0  0  1  0  0  0  0  0  0  0  0  0
    0.3023   -0.3557    1.0076 N   0  0  0  0  0  0  0  0  0  0  0  0
   -0.8736    2.0225    1.4625 O   0  0  0  0  0  0  0  0  0  0  0  0
   -2.9144    1.2711    0.7796 O   0  0  0  0  0  0  0  0  0  0  0  0
    0.1589    0.0135   -1.6433 S   0  0  0  0  0  0  0  0  0  0  0  0
    6.7741   -1.6484   -0.3972 Cl  0  0  0  0  0  0  0  0  0  0  0  0
    3.2613    1.3211    1.1494 H   0  0  0  0  0  0  0  0  0  0  0  0
    2.0517   -1.8551   -1.4960 H   0  0  0  0  0  0  0  0  0  0  0  0
    5.5924    0.5422    1.0245 H   0  0  0  0  0  0  0  0  0  0  0  0
    4.3805   -2.6397   -1.6246 H   0  0  0  0  0  0  0  0  0  0  0  0
   -1.3755   -1.6787   -0.9431 H   0  0  0  0  0  0  0  0  0  0  0  0
   -2.2171   -0.1329   -1.2294 H   0  0  0  0  0  0  0  0  0  0  0  0
    1.1168    1.3657    0.0977 H   0  0  0  0  0  0  0  0  0  0  0  0
   -1.7053   -0.9316    1.3022 H   0  0  0  0  0  0  0  0  0  0  0  0
    0.5312   -1.3509    1.0324 H   0  0  0  0  0  0  0  0  0  0  0  0
   -3.2371    2.1699    1.0041 H   0  0  0  0  0  0  0  0  0  0  0  0
  1  3  1  0  0  0  0
  1  5  2  0  0  0  0
  2  4  2  0  0  0  0
  2  5  1  0  0  0  0
  3  6  2  0  0  0  0
  4  6  1  0  0  0  0
  5  9  1  0  0  0  0
  6 15  1  0  0  0  0
  7 10  1  0  0  0  0
  7 12  2  0  0  0  0
  7 13  1  0  0  0  0
  8 10  1  0  0  0  0
  8 14  1  0  0  0  0
  9 11  1  0  0  0  0
  9 14  1  0  0  0  0
 10 11  1  0  0  0  0
  1 16  1  0  0  0  0
  2 17  1  0  0  0  0
  3 18  1  0  0  0  0
  4 19  1  0  0  0  0
  8 20  1  0  0  0  0
  8 21  1  0  0  0  0
  9 22  1  0  0  0  0
 10 23  1  0  0  0  0
 11 24  1  0  0  0  0
 13 25  1  0  0  0  0
M  END
$$$$
frag.vs.404_3
  -OEChem-01121112263D

 25 26  0     1  0  0  0  0  0999 V2000
    1.8318   -3.2491   -0.0966 C   0  0  0  0  0  0  0  0  0  0  0  0
    2.8309   -1.1135    0.4305 C   0  0  0  0  0  0  0  0  0  0  0  0
    3.0872   -3.8533   -0.0284 C   0  0  0  0  0  0  0  0  0  0  0  0
    4.0863   -1.7176    0.4987 C   0  0  0  0  0  0  0  0  0  0  0  0
    1.7037   -1.8792    0.1328 C   0  0  0  0  0  0  0  0  0  0  0  0
    4.2144   -3.0875    0.2693 C   0  0  0  0  0  0  0  0  0  0  0  0
   -0.7746    2.0850    1.1431 C   0  0  0  0  0  0  0  0  0  0  0  0
   -0.5903    0.9671   -1.0733 C   0  0  0  0  0  0  0  0  0  0  0  0
    0.3440   -1.2248    0.0607 C   0  0  1  0  0  0  0  0  0  0  0  0
   -0.8458    0.7828    0.4163 C   0  0  1  0  0  0  0  0  0  0  0  0
    0.2239   -0.0614    0.9503 N   0  0  0  0  0  0  0  0  0  0  0  0
    0.0427    2.3621    2.0083 O   0  0  0  0  0  0  0  0  0  0  0  0
   -1.7470    2.9263    0.7143 O   0  0  0  0  0  0  0  0  0  0  0  0
   -0.0609   -0.6695   -1.6299 S   0  0  0  0  0  0  0  0  0  0  0  0
    5.7629   -3.8330    0.3535 Cl  0  0  0  0  0  0  0  0  0  0  0  0
    0.9584   -3.8526   -0.3293 H   0  0  0  0  0  0  0  0  0  0  0  0
    2.7395   -0.0456    0.6108 H   0  0  0  0  0  0  0  0  0  0  0  0
    3.1716   -4.9218   -0.2092 H   0  0  0  0  0  0  0  0  0  0  0  0
    4.9558   -1.1083    0.7316 H   0  0  0  0  0  0  0  0  0  0  0  0
   -1.4940    1.2821   -1.6034 H   0  0  0  0  0  0  0  0  0  0  0  0
    0.2039    1.6926   -1.2800 H   0  0  0  0  0  0  0  0  0  0  0  0
   -0.4147   -1.9866    0.3503 H   0  0  0  0  0  0  0  0  0  0  0  0
   -1.8276    0.3316    0.6040 H   0  0  0  0  0  0  0  0  0  0  0  0
    0.0102   -0.3620    1.9004 H   0  0  0  0  0  0  0  0  0  0  0  0
   -1.7182    3.7882    1.1818 H   0  0  0  0  0  0  0  0  0  0  0  0
  1  3  1  0  0  0  0
  1  5  2  0  0  0  0
  2  4  2  0  0  0  0
  2  5  1  0  0  0  0
  3  6  2  0  0  0  0
  4  6  1  0  0  0  0
  5  9  1  0  0  0  0
  6 15  1  0  0  0  0
  7 10  1  0  0  0  0
  7 12  2  0  0  0  0
  7 13  1  0  0  0  0
  8 10  1  0  0  0  0
  8 14  1  0  0  0  0
  9 11  1  0  0  0  0
  9 14  1  0  0  0  0
 10 11  1  0  0  0  0
  1 16  1  0  0  0  0
  2 17  1  0  0  0  0
  3 18  1  0  0  0  0
  4 19  1  0  0  0  0
  8 20  1  0  0  0  0
  8 21  1  0  0  0  0
  9 22  1  0  0  0  0
 10 23  1  0  0  0  0
 11 24  1  0  0  0  0
 13 25  1  0  0  0  0
M  END
$$$$
frag.vs.405
  -OEChem-01121112263D

 23 24  0     0  0  0  0  0  0999 V2000
    1.4882    1.0885    1.1102 C   0  0  0  0  0  0  0  0  0  0  0  0
    0.1958    0.6327    0.8608 C   0  0  0  0  0  0  0  0  0  0  0  0
    1.7434    1.9019    2.2157 C   0  0  0  0  0  0  0  0  0  0  0  0
   -0.8472    0.9882    1.7157 C   0  0  0  0  0  0  0  0  0  0  0  0
    0.9287    3.0838    4.2034 C   0  0  0  0  0  0  0  0  0  0  0  0
   -1.6080    2.1925    3.7189 C   0  0  0  0  0  0  0  0  0  0  0  0
    0.7051    2.2697    3.0869 C   0  0  0  0  0  0  0  0  0  0  0  0
   -0.6020    1.8063    2.8310 C   0  0  0  0  0  0  0  0  0  0  0  0
   -0.1488    3.4025    5.0156 C   0  0  0  0  0  0  0  0  0  0  0  0
    0.0419    4.2433    6.1852 C   0  0  0  0  0  0  0  0  0  0  0  0
   -1.0749    5.2633    8.0318 C   0  0  0  0  0  0  0  0  0  0  0  0
   -1.4124    2.9776    4.8022 N   0  0  0  0  0  0  0  0  0  0  0  0
    1.1298    4.7213    6.5358 O   0  0  0  0  0  0  0  0  0  0  0  0
   -1.1330    4.4466    6.8574 O   0  0  0  0  0  0  0  0  0  0  0  0
    2.2994    0.8109    0.4432 H   0  0  0  0  0  0  0  0  0  0  0  0
   -0.0004    0.0013   -0.0009 H   0  0  0  0  0  0  0  0  0  0  0  0
    2.7601    2.2475    2.3902 H   0  0  0  0  0  0  0  0  0  0  0  0
   -1.8503    0.6236    1.5063 H   0  0  0  0  0  0  0  0  0  0  0  0
    1.9228    3.4592    4.4310 H   0  0  0  0  0  0  0  0  0  0  0  0
   -2.6366    1.8710    3.5798 H   0  0  0  0  0  0  0  0  0  0  0  0
   -2.0728    5.3448    8.4695 H   0  0  0  0  0  0  0  0  0  0  0  0
   -0.6987    6.2551    7.7686 H   0  0  0  0  0  0  0  0  0  0  0  0
   -0.3993    4.7994    8.7543 H   0  0  0  0  0  0  0  0  0  0  0  0
  1  2  1  0  0  0  0
  1  3  2  0  0  0  0
  2  4  2  0  0  0  0
  3  7  1  0  0  0  0
  4  8  1  0  0  0  0
  5  7  2  0  0  0  0
  5  9  1  0  0  0  0
  6  8  2  0  0  0  0
  6 12  1  0  0  0  0
  7  8  1  0  0  0  0
  9 10  1  0  0  0  0
  9 12  2  0  0  0  0
 10 13  2  0  0  0  0
 10 14  1  0  0  0  0
 11 14  1  0  0  0  0
  1 15  1  0  0  0  0
  2 16  1  0  0  0  0
  3 17  1  0  0  0  0
  4 18  1  0  0  0  0
  5 19  1  0  0  0  0
  6 20  1  0  0  0  0
 11 21  1  0  0  0  0
 11 22  1  0  0  0  0
 11 23  1  0  0  0  0
M  END
$$$$
frag.vs.406
  -OEChem-01121112263D

 23 23  0     0  0  0  0  0  0999 V2000
    1.9508    1.7481   -3.9882 C   0  0  0  0  0  0  0  0  0  0  0  0
    2.2221    2.9319   -4.6282 C   0  0  0  0  0  0  0  0  0  0  0  0
    0.8684    1.7527   -5.7914 C   0  0  0  0  0  0  0  0  0  0  0  0
    2.4870    1.2967   -2.6793 C   0  0  0  0  0  0  0  0  0  0  0  0
    3.0489    4.1073   -4.3325 C   0  0  0  0  0  0  0  0  0  0  0  0
    0.0139    1.4796   -6.9566 C   0  0  0  0  0  0  0  0  0  0  0  0
    1.8053   -1.8334   -0.9190 C   0  0  0  0  0  0  0  0  0  0  0  0
    2.4408   -0.4739   -1.1177 C   0  0  0  0  0  0  0  0  0  0  0  0
    1.0825    0.9968   -4.7383 N   0  0  0  0  0  0  0  0  0  0  0  0
    3.2595    1.9616   -2.0066 O   0  0  0  0  0  0  0  0  0  0  0  0
    1.5251    2.9449   -5.7985 O   0  0  0  0  0  0  0  0  0  0  0  0
    1.9994    0.0667   -2.3540 O   0  0  0  0  0  0  0  0  0  0  0  0
    4.0749    3.9920   -4.7279 H   0  0  0  0  0  0  0  0  0  0  0  0
    2.6331    5.0366   -4.7666 H   0  0  0  0  0  0  0  0  0  0  0  0
    3.1361    4.3002   -3.2461 H   0  0  0  0  0  0  0  0  0  0  0  0
   -1.0150    1.8473   -6.7966 H   0  0  0  0  0  0  0  0  0  0  0  0
    0.3958    1.9569   -7.8777 H   0  0  0  0  0  0  0  0  0  0  0  0
   -0.0526    0.3997   -7.1840 H   0  0  0  0  0  0  0  0  0  0  0  0
    0.7148   -1.7549   -0.8960 H   0  0  0  0  0  0  0  0  0  0  0  0
    2.0937   -2.5159   -1.7253 H   0  0  0  0  0  0  0  0  0  0  0  0
    2.1467   -2.2857    0.0181 H   0  0  0  0  0  0  0  0  0  0  0  0
    3.5313   -0.5596   -1.1398 H   0  0  0  0  0  0  0  0  0  0  0  0
    2.1510    0.2069   -0.3118 H   0  0  0  0  0  0  0  0  0  0  0  0
  1  2  2  0  0  0  0
  1  4  1  0  0  0  0
  1  9  1  0  0  0  0
  2  5  1  0  0  0  0
  2 11  1  0  0  0  0
  3  6  1  0  0  0  0
  3  9  2  0  0  0  0
  3 11  1  0  0  0  0
  4 10  2  0  0  0  0
  4 12  1  0  0  0  0
  7  8  1  0  0  0  0
  8 12  1  0  0  0  0
  5 13  1  0  0  0  0
  5 14  1  0  0  0  0
  5 15  1  0  0  0  0
  6 16  1  0  0  0  0
  6 17  1  0  0  0  0
  6 18  1  0  0  0  0
  7 19  1  0  0  0  0
  7 20  1  0  0  0  0
  7 21  1  0  0  0  0
  8 22  1  0  0  0  0
  8 23  1  0  0  0  0
M  END
$$$$
frag.vs.407_0
  -OEChem-01121112263D

 30 31  0     1  0  0  0  0  0999 V2000
    1.9820   -0.3884   -0.7428 C   0  0  0  0  0  0  0  0  0  0  0  0
    0.5965   -0.3058   -0.8546 C   0  0  0  0  0  0  0  0  0  0  0  0
    2.7463   -0.7894   -1.8380 C   0  0  0  0  0  0  0  0  0  0  0  0
   -0.0276   -0.6296   -2.0598 C   0  0  0  0  0  0  0  0  0  0  0  0
    2.1273   -1.0930   -3.0568 C   0  0  0  0  0  0  0  0  0  0  0  0
    0.7338   -1.0223   -3.1675 C   0  0  0  0  0  0  0  0  0  0  0  0
    2.5395   -1.7024   -5.4316 C   0  0  0  0  0  0  0  0  0  0  0  0
   -0.2238   -0.5442   -7.8261 C   0  0  0  0  0  0  0  0  0  0  0  0
    1.2119   -1.0778   -5.8337 C   0  0  1  0  0  0  0  0  0  0  0  0
   -1.7611   -0.7782  -11.1417 C   0  0  0  0  0  0  0  0  0  0  0  0
    0.7848   -1.4979   -7.2359 C   0  0  0  0  0  0  0  0  0  0  0  0
   -1.5071   -0.1707   -9.7786 C   0  0  0  0  0  0  0  0  0  0  0  0
    2.9413   -1.5230   -4.1225 N   0  0  0  0  0  0  0  0  0  0  0  0
    3.2788   -2.2418   -6.2584 O   0  0  0  0  0  0  0  0  0  0  0  0
   -0.6710    0.4490   -7.2692 O   0  0  0  0  0  0  0  0  0  0  0  0
   -0.5517   -0.9757   -9.0802 O   0  0  0  0  0  0  0  0  0  0  0  0
   -0.0954   -1.5171   -4.6611 S   0  0  0  0  0  0  0  0  0  0  0  0
    2.4666   -0.1457    0.1984 H   0  0  0  0  0  0  0  0  0  0  0  0
    0.0001   -0.0001    0.0001 H   0  0  0  0  0  0  0  0  0  0  0  0
    3.8265   -0.8558   -1.7322 H   0  0  0  0  0  0  0  0  0  0  0  0
   -1.1123   -0.5766   -2.1182 H   0  0  0  0  0  0  0  0  0  0  0  0
    1.3423    0.0112   -5.8192 H   0  0  0  0  0  0  0  0  0  0  0  0
   -0.8400   -0.8157  -11.7300 H   0  0  0  0  0  0  0  0  0  0  0  0
   -2.1597   -1.7933  -11.0438 H   0  0  0  0  0  0  0  0  0  0  0  0
   -2.5075   -0.1948  -11.6911 H   0  0  0  0  0  0  0  0  0  0  0  0
    0.3393   -2.4951   -7.1888 H   0  0  0  0  0  0  0  0  0  0  0  0
    1.6651   -1.5230   -7.8836 H   0  0  0  0  0  0  0  0  0  0  0  0
   -2.4322   -0.1362   -9.1954 H   0  0  0  0  0  0  0  0  0  0  0  0
   -1.1081    0.8431   -9.8783 H   0  0  0  0  0  0  0  0  0  0  0  0
    3.9155   -1.7197   -3.9082 H   0  0  0  0  0  0  0  0  0  0  0  0
  1  2  1  0  0  0  0
  1  3  2  0  0  0  0
  2  4  2  0  0  0  0
  3  5  1  0  0  0  0
  4  6  1  0  0  0  0
  5  6  2  0  0  0  0
  5 13  1  0  0  0  0
  6 17  1  0  0  0  0
  7  9  1  0  0  0  0
  7 13  1  0  0  0  0
  7 14  2  0  0  0  0
  8 11  1  0  0  0  0
  8 15  2  0  0  0  0
  8 16  1  0  0  0  0
  9 11  1  0  0  0  0
  9 17  1  0  0  0  0
 10 12  1  0  0  0  0
 12 16  1  0  0  0  0
  1 18  1  0  0  0  0
  2 19  1  0  0  0  0
  3 20  1  0  0  0  0
  4 21  1  0  0  0  0
  9 22  1  0  0  0  0
 10 23  1  0  0  0  0
 10 24  1  0  0  0  0
 10 25  1  0  0  0  0
 11 26  1  0  0  0  0
 11 27  1  0  0  0  0
 12 28  1  0  0  0  0
 12 29  1  0  0  0  0
 13 30  1  0  0  0  0
M  END
$$$$
frag.vs.407_1
  -OEChem-01121112263D

 30 31  0     1  0  0  0  0  0999 V2000
    1.7608    1.2362    0.0527 C   0  0  0  0  0  0  0  0  0  0  0  0
    0.3861    1.0141    0.0460 C   0  0  0  0  0  0  0  0  0  0  0  0
    2.2555    2.5382    0.1201 C   0  0  0  0  0  0  0  0  0  0  0  0
   -0.4960    2.0932    0.1124 C   0  0  0  0  0  0  0  0  0  0  0  0
    1.3749    3.6261    0.1633 C   0  0  0  0  0  0  0  0  0  0  0  0
   -0.0070    3.4042    0.1689 C   0  0  0  0  0  0  0  0  0  0  0  0
    1.2333    6.1081    0.1461 C   0  0  0  0  0  0  0  0  0  0  0  0
   -2.0365    7.4534   -1.3448 C   0  0  0  0  0  0  0  0  0  0  0  0
   -0.1603    6.0352   -0.4591 C   0  0  2  0  0  0  0  0  0  0  0  0
   -4.3317   10.2745   -1.7755 C   0  0  0  0  0  0  0  0  0  0  0  0
   -0.8953    7.3677   -0.3622 C   0  0  0  0  0  0  0  0  0  0  0  0
   -3.7644    8.9009   -2.0642 C   0  0  0  0  0  0  0  0  0  0  0  0
    1.9254    4.9186    0.2616 N   0  0  0  0  0  0  0  0  0  0  0  0
    1.7684    7.1868    0.4129 O   0  0  0  0  0  0  0  0  0  0  0  0
   -2.3533    6.5808   -2.1415 O   0  0  0  0  0  0  0  0  0  0  0  0
   -2.6521    8.6638   -1.1952 O   0  0  0  0  0  0  0  0  0  0  0  0
   -1.1530    4.7529    0.3455 S   0  0  0  0  0  0  0  0  0  0  0  0
    2.4472    0.3956    0.0110 H   0  0  0  0  0  0  0  0  0  0  0  0
    0.0002   -0.0001    0.0003 H   0  0  0  0  0  0  0  0  0  0  0  0
    3.3316    2.6943    0.1319 H   0  0  0  0  0  0  0  0  0  0  0  0
   -1.5653    1.8950    0.1254 H   0  0  0  0  0  0  0  0  0  0  0  0
   -0.0462    5.7748   -1.5185 H   0  0  0  0  0  0  0  0  0  0  0  0
   -4.6766   10.3445   -0.7401 H   0  0  0  0  0  0  0  0  0  0  0  0
   -3.5768   11.0483   -1.9498 H   0  0  0  0  0  0  0  0  0  0  0  0
   -5.1716   10.4931   -2.4432 H   0  0  0  0  0  0  0  0  0  0  0  0
   -0.1919    8.1784   -0.5697 H   0  0  0  0  0  0  0  0  0  0  0  0
   -1.2936    7.4817    0.6494 H   0  0  0  0  0  0  0  0  0  0  0  0
   -3.4213    8.8376   -3.1011 H   0  0  0  0  0  0  0  0  0  0  0  0
   -4.5196    8.1290   -1.8887 H   0  0  0  0  0  0  0  0  0  0  0  0
    2.9188    4.9783    0.4697 H   0  0  0  0  0  0  0  0  0  0  0  0
  1  2  1  0  0  0  0
  1  3  2  0  0  0  0
  2  4  2  0  0  0  0
  3  5  1  0  0  0  0
  4  6  1  0  0  0  0
  5  6  2  0  0  0  0
  5 13  1  0  0  0  0
  6 17  1  0  0  0  0
  7  9  1  0  0  0  0
  7 13  1  0  0  0  0
  7 14  2  0  0  0  0
  8 11  1  0  0  0  0
  8 15  2  0  0  0  0
  8 16  1  0  0  0  0
  9 11  1  0  0  0  0
  9 17  1  0  0  0  0
 10 12  1  0  0  0  0
 12 16  1  0  0  0  0
  1 18  1  0  0  0  0
  2 19  1  0  0  0  0
  3 20  1  0  0  0  0
  4 21  1  0  0  0  0
  9 22  1  0  0  0  0
 10 23  1  0  0  0  0
 10 24  1  0  0  0  0
 10 25  1  0  0  0  0
 11 26  1  0  0  0  0
 11 27  1  0  0  0  0
 12 28  1  0  0  0  0
 12 29  1  0  0  0  0
 13 30  1  0  0  0  0
M  END
$$$$
frag.vs.408_0
  -OEChem-01121112263D

 30 31  0     1  0  0  0  0  0999 V2000
    1.5847    1.2855    0.6833 C   0  0  0  0  0  0  0  0  0  0  0  0
    0.2541    0.8945    0.5613 C   0  0  0  0  0  0  0  0  0  0  0  0
    1.9098    2.4294    1.4111 C   0  0  0  0  0  0  0  0  0  0  0  0
   -0.7526    1.6436    1.1715 C   0  0  0  0  0  0  0  0  0  0  0  0
    0.9014    3.1968    2.0070 C   0  0  0  0  0  0  0  0  0  0  0  0
   -0.4360    2.8001    1.8958 C   0  0  0  0  0  0  0  0  0  0  0  0
    0.4398    5.2740    3.2679 C   0  0  0  0  0  0  0  0  0  0  0  0
   -2.4842    6.5143    1.1361 C   0  0  0  0  0  0  0  0  0  0  0  0
   -0.9993    5.3335    2.7844 C   0  0  1  0  0  0  0  0  0  0  0  0
   -3.5938    8.2532   -1.8898 C   0  0  0  0  0  0  0  0  0  0  0  0
   -1.0934    6.0053    1.4137 C   0  0  0  0  0  0  0  0  0  0  0  0
   -3.7510    7.6415   -0.5141 C   0  0  0  0  0  0  0  0  0  0  0  0
    1.2865    4.3283    2.7508 N   0  0  0  0  0  0  0  0  0  0  0  0
   -3.4423    6.4148    1.8901 O   0  0  0  0  0  0  0  0  0  0  0  0
   -2.4923    7.1027   -0.0968 O   0  0  0  0  0  0  0  0  0  0  0  0
    1.0300    6.4339    4.3338 S   0  0  0  0  0  0  0  0  0  0  0  0
   -1.7414    3.6771    2.7296 S   0  0  0  0  0  0  0  0  0  0  0  0
    2.3693    0.6979    0.2158 H   0  0  0  0  0  0  0  0  0  0  0  0
    0.0004    0.0002   -0.0004 H   0  0  0  0  0  0  0  0  0  0  0  0
    2.9544    2.7173    1.5030 H   0  0  0  0  0  0  0  0  0  0  0  0
   -1.7829    1.3077    1.0778 H   0  0  0  0  0  0  0  0  0  0  0  0
   -1.6033    5.9155    3.4903 H   0  0  0  0  0  0  0  0  0  0  0  0
   -2.8561    9.0603   -1.8761 H   0  0  0  0  0  0  0  0  0  0  0  0
   -3.2764    7.4965   -2.6148 H   0  0  0  0  0  0  0  0  0  0  0  0
   -4.5490    8.6538   -2.2454 H   0  0  0  0  0  0  0  0  0  0  0  0
   -0.8228    5.2777    0.6461 H   0  0  0  0  0  0  0  0  0  0  0  0
   -0.3967    6.8452    1.3855 H   0  0  0  0  0  0  0  0  0  0  0  0
   -4.4901    6.8351   -0.5348 H   0  0  0  0  0  0  0  0  0  0  0  0
   -4.0673    8.3991    0.2092 H   0  0  0  0  0  0  0  0  0  0  0  0
    2.2780    4.4288    2.9523 H   0  0  0  0  0  0  0  0  0  0  0  0
  1  2  1  0  0  0  0
  1  3  2  0  0  0  0
  2  4  2  0  0  0  0
  3  5  1  0  0  0  0
  4  6  1  0  0  0  0
  5  6  2  0  0  0  0
  5 13  1  0  0  0  0
  6 17  1  0  0  0  0
  7  9  1  0  0  0  0
  7 13  1  0  0  0  0
  7 16  2  0  0  0  0
  8 11  1  0  0  0  0
  8 14  2  0  0  0  0
  8 15  1  0  0  0  0
  9 11  1  0  0  0  0
  9 17  1  0  0  0  0
 10 12  1  0  0  0  0
 12 15  1  0  0  0  0
  1 18  1  0  0  0  0
  2 19  1  0  0  0  0
  3 20  1  0  0  0  0
  4 21  1  0  0  0  0
  9 22  1  0  0  0  0
 10 23  1  0  0  0  0
 10 24  1  0  0  0  0
 10 25  1  0  0  0  0
 11 26  1  0  0  0  0
 11 27  1  0  0  0  0
 12 28  1  0  0  0  0
 12 29  1  0  0  0  0
 13 30  1  0  0  0  0
M  END
$$$$
frag.vs.408_1
  -OEChem-01121112263D

 30 31  0     1  0  0  0  0  0999 V2000
    2.9907   -0.5333   -0.2277 C   0  0  0  0  0  0  0  0  0  0  0  0
    2.5028   -1.8372   -0.2211 C   0  0  0  0  0  0  0  0  0  0  0  0
    2.1029    0.5416   -0.2370 C   0  0  0  0  0  0  0  0  0  0  0  0
    1.1267   -2.0679   -0.2296 C   0  0  0  0  0  0  0  0  0  0  0  0
    0.7209    0.3156   -0.2234 C   0  0  0  0  0  0  0  0  0  0  0  0
    0.2274   -0.9939   -0.2285 C   0  0  0  0  0  0  0  0  0  0  0  0
   -1.4915    1.4140   -0.0961 C   0  0  0  0  0  0  0  0  0  0  0  0
   -2.9949   -0.8304    2.6148 C   0  0  0  0  0  0  0  0  0  0  0  0
   -2.1574    0.1697    0.4667 C   0  0  2  0  0  0  0  0  0  0  0  0
   -3.2900   -1.6132    6.1801 C   0  0  0  0  0  0  0  0  0  0  0  0
   -1.9806    0.0877    1.9835 C   0  0  0  0  0  0  0  0  0  0  0  0
   -3.6629   -1.6914    4.7150 C   0  0  0  0  0  0  0  0  0  0  0  0
   -0.1307    1.4359   -0.2583 N   0  0  0  0  0  0  0  0  0  0  0  0
   -3.8676   -1.4453    2.0173 O   0  0  0  0  0  0  0  0  0  0  0  0
   -2.7750   -0.8581    3.9629 O   0  0  0  0  0  0  0  0  0  0  0  0
   -2.3941    2.8003   -0.4013 S   0  0  0  0  0  0  0  0  0  0  0  0
   -1.5172   -1.3326   -0.3273 S   0  0  0  0  0  0  0  0  0  0  0  0
    4.0618   -0.3536   -0.2305 H   0  0  0  0  0  0  0  0  0  0  0  0
    3.1932   -2.6756   -0.2198 H   0  0  0  0  0  0  0  0  0  0  0  0
    2.4999    1.5539   -0.2501 H   0  0  0  0  0  0  0  0  0  0  0  0
    0.7695   -3.0952   -0.2433 H   0  0  0  0  0  0  0  0  0  0  0  0
   -3.2320    0.1950    0.2507 H   0  0  0  0  0  0  0  0  0  0  0  0
   -2.2656   -1.9603    6.3411 H   0  0  0  0  0  0  0  0  0  0  0  0
   -3.3766   -0.5849    6.5462 H   0  0  0  0  0  0  0  0  0  0  0  0
   -3.9690   -2.2242    6.7842 H   0  0  0  0  0  0  0  0  0  0  0  0
   -2.0968    1.0876    2.4059 H   0  0  0  0  0  0  0  0  0  0  0  0
   -0.9790   -0.2885    2.2008 H   0  0  0  0  0  0  0  0  0  0  0  0
   -4.6885   -1.3429    4.5610 H   0  0  0  0  0  0  0  0  0  0  0  0
   -3.5752   -2.7193    4.3507 H   0  0  0  0  0  0  0  0  0  0  0  0
    0.3013    2.3340   -0.4591 H   0  0  0  0  0  0  0  0  0  0  0  0
  1  2  1  0  0  0  0
  1  3  2  0  0  0  0
  2  4  2  0  0  0  0
  3  5  1  0  0  0  0
  4  6  1  0  0  0  0
  5  6  2  0  0  0  0
  5 13  1  0  0  0  0
  6 17  1  0  0  0  0
  7  9  1  0  0  0  0
  7 13  1  0  0  0  0
  7 16  2  0  0  0  0
  8 11  1  0  0  0  0
  8 14  2  0  0  0  0
  8 15  1  0  0  0  0
  9 11  1  0  0  0  0
  9 17  1  0  0  0  0
 10 12  1  0  0  0  0
 12 15  1  0  0  0  0
  1 18  1  0  0  0  0
  2 19  1  0  0  0  0
  3 20  1  0  0  0  0
  4 21  1  0  0  0  0
  9 22  1  0  0  0  0
 10 23  1  0  0  0  0
 10 24  1  0  0  0  0
 10 25  1  0  0  0  0
 11 26  1  0  0  0  0
 11 27  1  0  0  0  0
 12 28  1  0  0  0  0
 12 29  1  0  0  0  0
 13 30  1  0  0  0  0
M  END
$$$$
frag.vs.409
  -OEChem-01121112263D

 26 27  0     0  0  0  0  0  0999 V2000
    1.8845   -1.0348   -0.1124 C   0  0  0  0  0  0  0  0  0  0  0  0
    1.7190    0.1535    0.5990 C   0  0  0  0  0  0  0  0  0  0  0  0
    2.0076   -2.2450    0.5701 C   0  0  0  0  0  0  0  0  0  0  0  0
    1.6766    0.1316    1.9931 C   0  0  0  0  0  0  0  0  0  0  0  0
    1.9652   -2.2669    1.9642 C   0  0  0  0  0  0  0  0  0  0  0  0
    1.7997   -1.0786    2.6757 C   0  0  0  0  0  0  0  0  0  0  0  0
    1.5337   -1.8098    6.1808 C   0  0  0  0  0  0  0  0  0  0  0  0
    1.8345   -0.4902    6.4457 C   0  0  0  0  0  0  0  0  0  0  0  0
    1.7549   -1.1012    4.1171 C   0  0  0  0  0  0  0  0  0  0  0  0
    1.2618   -2.8576    7.1858 C   0  0  0  0  0  0  0  0  0  0  0  0
    1.9642    0.2153    7.7367 C   0  0  0  0  0  0  0  0  0  0  0  0
    1.4872   -2.1619    4.8460 N   0  0  0  0  0  0  0  0  0  0  0  0
    0.6871    0.4928    8.3567 N   0  0  0  0  0  0  0  0  0  0  0  0
    2.0726    0.3528    4.9713 S   0  0  0  0  0  0  0  0  0  0  0  0
    1.9169   -1.0177   -1.1979 H   0  0  0  0  0  0  0  0  0  0  0  0
    1.6234    1.0958    0.0673 H   0  0  0  0  0  0  0  0  0  0  0  0
    2.1354   -3.1704    0.0161 H   0  0  0  0  0  0  0  0  0  0  0  0
    1.5443    1.0660    2.5332 H   0  0  0  0  0  0  0  0  0  0  0  0
    2.0637   -3.2183    2.4816 H   0  0  0  0  0  0  0  0  0  0  0  0
    0.1879   -2.9050    7.4282 H   0  0  0  0  0  0  0  0  0  0  0  0
    1.5715   -3.8564    6.8350 H   0  0  0  0  0  0  0  0  0  0  0  0
    1.8109   -2.6801    8.1259 H   0  0  0  0  0  0  0  0  0  0  0  0
    2.5529   -0.3685    8.4663 H   0  0  0  0  0  0  0  0  0  0  0  0
    2.4826    1.1845    7.6326 H   0  0  0  0  0  0  0  0  0  0  0  0
    0.6130    1.2754    8.9803 H   0  0  0  0  0  0  0  0  0  0  0  0
   -0.0318   -0.2063    8.3152 H   0  0  0  0  0  0  0  0  0  0  0  0
  1  2  1  0  0  0  0
  1  3  2  0  0  0  0
  2  4  2  0  0  0  0
  3  5  1  0  0  0  0
  4  6  1  0  0  0  0
  5  6  2  0  0  0  0
  6  9  1  0  0  0  0
  7  8  2  0  0  0  0
  7 10  1  0  0  0  0
  7 12  1  0  0  0  0
  8 11  1  0  0  0  0
  8 14  1  0  0  0  0
  9 12  2  0  0  0  0
  9 14  1  0  0  0  0
 11 13  1  0  0  0  0
  1 15  1  0  0  0  0
  2 16  1  0  0  0  0
  3 17  1  0  0  0  0
  4 18  1  0  0  0  0
  5 19  1  0  0  0  0
 10 20  1  0  0  0  0
 10 21  1  0  0  0  0
 10 22  1  0  0  0  0
 11 23  1  0  0  0  0
 11 24  1  0  0  0  0
 13 25  1  0  0  0  0
 13 26  1  0  0  0  0
M  END
$$$$
frag.vs.410
  -OEChem-01121112263D

 15 16  0     0  0  0  0  0  0999 V2000
   -1.2009    1.0896   -1.4147 C   0  0  0  0  0  0  0  0  0  0  0  0
   -0.8799   -0.0285   -0.6380 C   0  0  0  0  0  0  0  0  0  0  0  0
   -2.3265    1.0925   -2.2508 C   0  0  0  0  0  0  0  0  0  0  0  0
   -1.6680   -1.1837   -0.6662 C   0  0  0  0  0  0  0  0  0  0  0  0
   -3.1259   -0.0594   -2.2892 C   0  0  0  0  0  0  0  0  0  0  0  0
   -2.7767   -1.1462   -1.5067 C   0  0  0  0  0  0  0  0  0  0  0  0
   -4.2933   -0.4889   -2.9495 C   0  0  0  0  0  0  0  0  0  0  0  0
   -4.6417   -1.7335   -2.6097 N   0  0  0  0  0  0  0  0  0  0  0  0
   -3.6797   -2.1469   -1.6963 O   0  0  0  0  0  0  0  0  0  0  0  0
   -5.0519    0.1741   -3.8328 O   0  0  0  0  0  0  0  0  0  0  0  0
   -0.5680    1.9723   -1.3709 H   0  0  0  0  0  0  0  0  0  0  0  0
   -0.0000    0.0001    0.0000 H   0  0  0  0  0  0  0  0  0  0  0  0
   -2.5643    1.9671   -2.8484 H   0  0  0  0  0  0  0  0  0  0  0  0
   -1.4272   -2.0545   -0.0689 H   0  0  0  0  0  0  0  0  0  0  0  0
   -5.8082   -0.3686   -4.1330 H   0  0  0  0  0  0  0  0  0  0  0  0
  1  2  1  0  0  0  0
  1  3  2  0  0  0  0
  2  4  2  0  0  0  0
  3  5  1  0  0  0  0
  4  6  1  0  0  0  0
  5  6  2  0  0  0  0
  5  7  1  0  0  0  0
  6  9  1  0  0  0  0
  7  8  2  0  0  0  0
  7 10  1  0  0  0  0
  8  9  1  0  0  0  0
  1 11  1  0  0  0  0
  2 12  1  0  0  0  0
  3 13  1  0  0  0  0
  4 14  1  0  0  0  0
 10 15  1  0  0  0  0
M  END
$$$$
frag.vs.411
  -OEChem-01121112263D

 20 21  0     0  0  0  0  0  0999 V2000
   -0.8799   -0.0285   -0.6380 C   0  0  0  0  0  0  0  0  0  0  0  0
   -1.6680   -1.1837   -0.6662 C   0  0  0  0  0  0  0  0  0  0  0  0
   -1.2009    1.0896   -1.4147 C   0  0  0  0  0  0  0  0  0  0  0  0
   -3.1259   -0.0594   -2.2892 C   0  0  0  0  0  0  0  0  0  0  0  0
   -2.7767   -1.1462   -1.5067 C   0  0  0  0  0  0  0  0  0  0  0  0
   -2.3265    1.0925   -2.2508 C   0  0  0  0  0  0  0  0  0  0  0  0
   -4.2933   -0.4889   -2.9495 C   0  0  0  0  0  0  0  0  0  0  0  0
   -2.0415    2.2669   -4.2991 C   0  0  0  0  0  0  0  0  0  0  0  0
   -4.6417   -1.7335   -2.6097 N   0  0  0  0  0  0  0  0  0  0  0  0
   -4.9613    0.3032   -3.8277 N   0  0  0  0  0  0  0  0  0  0  0  0
   -3.6797   -2.1469   -1.6963 O   0  0  0  0  0  0  0  0  0  0  0  0
   -2.6126    2.2031   -2.9965 O   0  0  0  0  0  0  0  0  0  0  0  0
    0.0007    0.0003   -0.0008 H   0  0  0  0  0  0  0  0  0  0  0  0
   -1.4271   -2.0534   -0.0672 H   0  0  0  0  0  0  0  0  0  0  0  0
   -0.5637    1.9697   -1.3653 H   0  0  0  0  0  0  0  0  0  0  0  0
   -2.3454    3.1969   -4.7857 H   0  0  0  0  0  0  0  0  0  0  0  0
   -2.3768    1.4089   -4.8873 H   0  0  0  0  0  0  0  0  0  0  0  0
   -0.9528    2.2430   -4.2115 H   0  0  0  0  0  0  0  0  0  0  0  0
   -4.6695    1.2696   -4.0132 H   0  0  0  0  0  0  0  0  0  0  0  0
   -5.8372    0.0007   -4.2690 H   0  0  0  0  0  0  0  0  0  0  0  0
  1  2  1  0  0  0  0
  1  3  2  0  0  0  0
  2  5  2  0  0  0  0
  3  6  1  0  0  0  0
  4  5  1  0  0  0  0
  4  6  2  0  0  0  0
  4  7  1  0  0  0  0
  5 11  1  0  0  0  0
  6 12  1  0  0  0  0
  7  9  2  0  0  0  0
  7 10  1  0  0  0  0
  8 12  1  0  0  0  0
  9 11  1  0  0  0  0
  1 13  1  0  0  0  0
  2 14  1  0  0  0  0
  3 15  1  0  0  0  0
  8 16  1  0  0  0  0
  8 17  1  0  0  0  0
  8 18  1  0  0  0  0
 10 19  1  0  0  0  0
 10 20  1  0  0  0  0
M  END
$$$$
frag.vs.412
  -OEChem-01121112263D

 25 26  0     0  0  0  0  0  0999 V2000
    1.8851   -1.0363   -0.1124 C   0  0  0  0  0  0  0  0  0  0  0  0
    0.8066   -0.4630    0.5610 C   0  0  0  0  0  0  0  0  0  0  0  0
    2.9210   -1.6309    0.6081 C   0  0  0  0  0  0  0  0  0  0  0  0
   -1.1587   -0.6413    3.4858 C   0  0  0  0  0  0  0  0  0  0  0  0
    1.7997   -1.0786    2.6757 C   0  0  0  0  0  0  0  0  0  0  0  0
   -2.1931    0.0410    4.0932 C   0  0  0  0  0  0  0  0  0  0  0  0
    0.7638   -0.4841    1.9551 C   0  0  0  0  0  0  0  0  0  0  0  0
    2.8783   -1.6520    2.0022 C   0  0  0  0  0  0  0  0  0  0  0  0
   -0.3553    0.1105    2.6531 C   0  0  0  0  0  0  0  0  0  0  0  0
   -1.5803    1.9784    3.0744 C   0  0  0  0  0  0  0  0  0  0  0  0
   -1.8151    3.4329    2.8452 C   0  0  0  0  0  0  0  0  0  0  0  0
   -2.4338    1.3557    3.9094 N   0  0  0  0  0  0  0  0  0  0  0  0
   -0.5380    1.4274    2.4235 N   0  0  0  0  0  0  0  0  0  0  0  0
    3.9261   -2.2529    2.7302 N   0  0  0  0  0  0  0  0  0  0  0  0
    1.9182   -1.0198   -1.1979 H   0  0  0  0  0  0  0  0  0  0  0  0
    0.0071   -0.0028   -0.0150 H   0  0  0  0  0  0  0  0  0  0  0  0
    3.7566   -2.0750    0.0730 H   0  0  0  0  0  0  0  0  0  0  0  0
   -1.0002   -1.6982    3.6606 H   0  0  0  0  0  0  0  0  0  0  0  0
    1.7707   -1.0973    3.7635 H   0  0  0  0  0  0  0  0  0  0  0  0
   -2.8776   -0.4664    4.7646 H   0  0  0  0  0  0  0  0  0  0  0  0
   -1.2619    4.0300    3.5806 H   0  0  0  0  0  0  0  0  0  0  0  0
   -1.4940    3.7351    1.8398 H   0  0  0  0  0  0  0  0  0  0  0  0
   -2.8813    3.6822    2.9260 H   0  0  0  0  0  0  0  0  0  0  0  0
    4.6699   -2.7014    2.2347 H   0  0  0  0  0  0  0  0  0  0  0  0
    3.8611   -2.3034    3.7268 H   0  0  0  0  0  0  0  0  0  0  0  0
  1  2  2  0  0  0  0
  1  3  1  0  0  0  0
  2  7  1  0  0  0  0
  3  8  2  0  0  0  0
  4  6  1  0  0  0  0
  4  9  2  0  0  0  0
  5  7  2  0  0  0  0
  5  8  1  0  0  0  0
  6 12  2  0  0  0  0
  7  9  1  0  0  0  0
  8 14  1  0  0  0  0
  9 13  1  0  0  0  0
 10 11  1  0  0  0  0
 10 12  1  0  0  0  0
 10 13  2  0  0  0  0
  1 15  1  0  0  0  0
  2 16  1  0  0  0  0
  3 17  1  0  0  0  0
  4 18  1  0  0  0  0
  5 19  1  0  0  0  0
  6 20  1  0  0  0  0
 11 21  1  0  0  0  0
 11 22  1  0  0  0  0
 11 23  1  0  0  0  0
 14 24  1  0  0  0  0
 14 25  1  0  0  0  0
M  END
$$$$
frag.vs.413
  -OEChem-01121112263D

 20 21  0     0  0  0  0  0  0999 V2000
   -1.2009    1.0896   -1.4147 C   0  0  0  0  0  0  0  0  0  0  0  0
   -0.8799   -0.0285   -0.6380 C   0  0  0  0  0  0  0  0  0  0  0  0
   -2.3265    1.0925   -2.2508 C   0  0  0  0  0  0  0  0  0  0  0  0
   -1.6680   -1.1837   -0.6662 C   0  0  0  0  0  0  0  0  0  0  0  0
   -3.1259   -0.0594   -2.2892 C   0  0  0  0  0  0  0  0  0  0  0  0
   -2.7767   -1.1462   -1.5067 C   0  0  0  0  0  0  0  0  0  0  0  0
   -4.2933   -0.4889   -2.9495 C   0  0  0  0  0  0  0  0  0  0  0  0
   -4.4798    0.2762   -5.2940 C   0  0  0  0  0  0  0  0  0  0  0  0
   -5.1131    0.2583   -3.9182 C   0  0  0  0  0  0  0  0  0  0  0  0
   -4.6417   -1.7335   -2.6097 N   0  0  0  0  0  0  0  0  0  0  0  0
   -3.3733   -0.1859   -5.5427 O   0  0  0  0  0  0  0  0  0  0  0  0
   -3.6797   -2.1469   -1.6963 O   0  0  0  0  0  0  0  0  0  0  0  0
   -5.2483    0.9042   -6.2189 O   0  0  0  0  0  0  0  0  0  0  0  0
   -0.5669    1.9717   -1.3695 H   0  0  0  0  0  0  0  0  0  0  0  0
   -0.0003    0.0006    0.0004 H   0  0  0  0  0  0  0  0  0  0  0  0
   -2.5635    1.9670   -2.8483 H   0  0  0  0  0  0  0  0  0  0  0  0
   -1.4271   -2.0548   -0.0692 H   0  0  0  0  0  0  0  0  0  0  0  0
   -5.3076    1.2983   -3.6023 H   0  0  0  0  0  0  0  0  0  0  0  0
   -6.1204   -0.1802   -4.0342 H   0  0  0  0  0  0  0  0  0  0  0  0
   -4.8573    0.9673   -7.1164 H   0  0  0  0  0  0  0  0  0  0  0  0
  1  2  1  0  0  0  0
  1  3  2  0  0  0  0
  2  4  2  0  0  0  0
  3  5  1  0  0  0  0
  4  6  1  0  0  0  0
  5  6  2  0  0  0  0
  5  7  1  0  0  0  0
  6 12  1  0  0  0  0
  7  9  1  0  0  0  0
  7 10  2  0  0  0  0
  8  9  1  0  0  0  0
  8 11  2  0  0  0  0
  8 13  1  0  0  0  0
 10 12  1  0  0  0  0
  1 14  1  0  0  0  0
  2 15  1  0  0  0  0
  3 16  1  0  0  0  0
  4 17  1  0  0  0  0
  9 18  1  0  0  0  0
  9 19  1  0  0  0  0
 13 20  1  0  0  0  0
M  END
$$$$
frag.vs.414
  -OEChem-01121112263D

 19 20  0     0  0  0  0  0  0999 V2000
   -0.4095   -4.6961   -4.7748 C   0  0  0  0  0  0  0  0  0  0  0  0
   -0.4909   -3.4492   -4.1100 C   0  0  0  0  0  0  0  0  0  0  0  0
   -0.2303   -1.3824   -1.7538 C   0  0  0  0  0  0  0  0  0  0  0  0
    0.0880   -5.5883   -3.8537 C   0  0  0  0  0  0  0  0  0  0  0  0
    0.0707   -2.7221   -1.7863 C   0  0  0  0  0  0  0  0  0  0  0  0
   -0.0376   -3.6684   -2.8300 C   0  0  0  0  0  0  0  0  0  0  0  0
    0.0890   -0.9817   -0.4426 C   0  0  0  0  0  0  0  0  0  0  0  0
   -0.0375    0.3306    0.1243 C   0  0  0  0  0  0  0  0  0  0  0  0
    0.5568   -1.9856    0.3039 N   0  0  0  0  0  0  0  0  0  0  0  0
    0.5336   -3.0305   -0.5409 N   0  0  0  0  0  0  0  0  0  0  0  0
    0.2534    0.6586    1.2913 O   0  0  0  0  0  0  0  0  0  0  0  0
    0.3172   -4.9698   -2.6656 O   0  0  0  0  0  0  0  0  0  0  0  0
   -0.5281    1.2547   -0.7582 O   0  0  0  0  0  0  0  0  0  0  0  0
   -0.6797   -4.9164   -5.7973 H   0  0  0  0  0  0  0  0  0  0  0  0
   -0.8383   -2.5114   -4.5213 H   0  0  0  0  0  0  0  0  0  0  0  0
   -0.6239   -0.7814   -2.5616 H   0  0  0  0  0  0  0  0  0  0  0  0
    0.3238   -6.6419   -3.8845 H   0  0  0  0  0  0  0  0  0  0  0  0
    0.8503   -3.9289   -0.1971 H   0  0  0  0  0  0  0  0  0  0  0  0
   -0.6175    2.1557   -0.3804 H   0  0  0  0  0  0  0  0  0  0  0  0
  1  2  1  0  0  0  0
  1  4  2  0  0  0  0
  2  6  2  0  0  0  0
  3  5  2  0  0  0  0
  3  7  1  0  0  0  0
  4 12  1  0  0  0  0
  5  6  1  0  0  0  0
  5 10  1  0  0  0  0
  6 12  1  0  0  0  0
  7  8  1  0  0  0  0
  7  9  2  0  0  0  0
  8 11  2  0  0  0  0
  8 13  1  0  0  0  0
  9 10  1  0  0  0  0
  1 14  1  0  0  0  0
  2 15  1  0  0  0  0
  3 16  1  0  0  0  0
  4 17  1  0  0  0  0
 10 18  1  0  0  0  0
 13 19  1  0  0  0  0
M  END
$$$$
frag.vs.415
  -OEChem-01121112263D

 25 26  0     0  0  0  0  0  0999 V2000
   -0.4095   -4.6961   -4.7748 C   0  0  0  0  0  0  0  0  0  0  0  0
   -0.4909   -3.4492   -4.1100 C   0  0  0  0  0  0  0  0  0  0  0  0
   -0.2303   -1.3824   -1.7538 C   0  0  0  0  0  0  0  0  0  0  0  0
    0.0880   -5.5883   -3.8537 C   0  0  0  0  0  0  0  0  0  0  0  0
    0.0707   -2.7221   -1.7863 C   0  0  0  0  0  0  0  0  0  0  0  0
   -0.0376   -3.6684   -2.8300 C   0  0  0  0  0  0  0  0  0  0  0  0
    0.0890   -0.9817   -0.4426 C   0  0  0  0  0  0  0  0  0  0  0  0
   -0.0375    0.3306    0.1243 C   0  0  0  0  0  0  0  0  0  0  0  0
   -1.2527    3.4245   -1.4691 C   0  0  0  0  0  0  0  0  0  0  0  0
   -0.7027    2.5929   -0.3299 C   0  0  0  0  0  0  0  0  0  0  0  0
    0.5568   -1.9856    0.3039 N   0  0  0  0  0  0  0  0  0  0  0  0
    0.5336   -3.0305   -0.5409 N   0  0  0  0  0  0  0  0  0  0  0  0
    0.2599    0.6393    1.2976 O   0  0  0  0  0  0  0  0  0  0  0  0
    0.3172   -4.9698   -2.6656 O   0  0  0  0  0  0  0  0  0  0  0  0
   -0.5317    1.2438   -0.7777 O   0  0  0  0  0  0  0  0  0  0  0  0
   -0.6797   -4.9164   -5.7973 H   0  0  0  0  0  0  0  0  0  0  0  0
   -0.8383   -2.5114   -4.5213 H   0  0  0  0  0  0  0  0  0  0  0  0
   -0.6239   -0.7814   -2.5616 H   0  0  0  0  0  0  0  0  0  0  0  0
    0.3238   -6.6419   -3.8845 H   0  0  0  0  0  0  0  0  0  0  0  0
   -0.5657    3.4237   -2.3199 H   0  0  0  0  0  0  0  0  0  0  0  0
   -2.2225    3.0363   -1.7973 H   0  0  0  0  0  0  0  0  0  0  0  0
   -1.4159    4.4587   -1.1480 H   0  0  0  0  0  0  0  0  0  0  0  0
   -1.3944    2.5980    0.5177 H   0  0  0  0  0  0  0  0  0  0  0  0
    0.2666    2.9816   -0.0038 H   0  0  0  0  0  0  0  0  0  0  0  0
    0.8503   -3.9289   -0.1971 H   0  0  0  0  0  0  0  0  0  0  0  0
  1  2  1  0  0  0  0
  1  4  2  0  0  0  0
  2  6  2  0  0  0  0
  3  5  2  0  0  0  0
  3  7  1  0  0  0  0
  4 14  1  0  0  0  0
  5  6  1  0  0  0  0
  5 12  1  0  0  0  0
  6 14  1  0  0  0  0
  7  8  1  0  0  0  0
  7 11  2  0  0  0  0
  8 13  2  0  0  0  0
  8 15  1  0  0  0  0
  9 10  1  0  0  0  0
 10 15  1  0  0  0  0
 11 12  1  0  0  0  0
  1 16  1  0  0  0  0
  2 17  1  0  0  0  0
  3 18  1  0  0  0  0
  4 19  1  0  0  0  0
  9 20  1  0  0  0  0
  9 21  1  0  0  0  0
  9 22  1  0  0  0  0
 10 23  1  0  0  0  0
 10 24  1  0  0  0  0
 12 25  1  0  0  0  0
M  END
$$$$
frag.vs.416
  -OEChem-01121112263D

 20 21  0     0  0  0  0  0  0999 V2000
   -0.4094   -4.6946   -4.7759 C   0  0  0  0  0  0  0  0  0  0  0  0
   -0.4908   -3.4480   -4.1105 C   0  0  0  0  0  0  0  0  0  0  0  0
   -0.2303   -1.3824   -1.7538 C   0  0  0  0  0  0  0  0  0  0  0  0
    0.0879   -5.5873   -3.8552 C   0  0  0  0  0  0  0  0  0  0  0  0
    0.0707   -2.7221   -1.7863 C   0  0  0  0  0  0  0  0  0  0  0  0
   -0.0376   -3.6680   -2.8305 C   0  0  0  0  0  0  0  0  0  0  0  0
    0.0890   -0.9817   -0.4426 C   0  0  0  0  0  0  0  0  0  0  0  0
   -0.0393    0.3651    0.1396 C   0  0  0  0  0  0  0  0  0  0  0  0
    0.5568   -1.9856    0.3039 N   0  0  0  0  0  0  0  0  0  0  0  0
    0.5336   -3.0305   -0.5409 N   0  0  0  0  0  0  0  0  0  0  0  0
    0.3170   -4.9695   -2.6668 O   0  0  0  0  0  0  0  0  0  0  0  0
   -1.1684    0.4168    1.0133 O   0  0  0  0  0  0  0  0  0  0  0  0
   -0.6795   -4.9143   -5.7986 H   0  0  0  0  0  0  0  0  0  0  0  0
   -0.8379   -2.5099   -4.5214 H   0  0  0  0  0  0  0  0  0  0  0  0
   -0.6219   -0.7807   -2.5620 H   0  0  0  0  0  0  0  0  0  0  0  0
    0.3235   -6.6410   -3.8865 H   0  0  0  0  0  0  0  0  0  0  0  0
    0.8531    0.6564    0.7235 H   0  0  0  0  0  0  0  0  0  0  0  0
   -0.1735    1.1417   -0.6356 H   0  0  0  0  0  0  0  0  0  0  0  0
    0.8501   -3.9289   -0.1970 H   0  0  0  0  0  0  0  0  0  0  0  0
   -1.2014    1.3195    1.3634 H   0  0  0  0  0  0  0  0  0  0  0  0
  1  2  1  0  0  0  0
  1  4  2  0  0  0  0
  2  6  2  0  0  0  0
  3  5  2  0  0  0  0
  3  7  1  0  0  0  0
  4 11  1  0  0  0  0
  5  6  1  0  0  0  0
  5 10  1  0  0  0  0
  6 11  1  0  0  0  0
  7  8  1  0  0  0  0
  7  9  2  0  0  0  0
  8 12  1  0  0  0  0
  9 10  1  0  0  0  0
  1 13  1  0  0  0  0
  2 14  1  0  0  0  0
  3 15  1  0  0  0  0
  4 16  1  0  0  0  0
  8 17  1  0  0  0  0
  8 18  1  0  0  0  0
 10 19  1  0  0  0  0
 12 20  1  0  0  0  0
M  END
$$$$
frag.vs.417
  -OEChem-01121112263D

 21 22  0     0  0  0  0  0  0999 V2000
   -0.5682    2.6504    0.1482 C   0  0  0  0  0  0  0  0  0  0  0  0
   -0.5345    1.4557   -0.6276 C   0  0  0  0  0  0  0  0  0  0  0  0
   -0.2303   -1.3824   -1.7538 C   0  0  0  0  0  0  0  0  0  0  0  0
   -0.1173    2.4457    1.4336 C   0  0  0  0  0  0  0  0  0  0  0  0
    0.0890   -0.9817   -0.4426 C   0  0  0  0  0  0  0  0  0  0  0  0
   -0.0587    0.3833    0.0946 C   0  0  0  0  0  0  0  0  0  0  0  0
    0.0707   -2.7221   -1.7863 C   0  0  0  0  0  0  0  0  0  0  0  0
    0.9831   -4.3211   -0.0704 C   0  0  0  0  0  0  0  0  0  0  0  0
    0.5568   -1.9856    0.3039 N   0  0  0  0  0  0  0  0  0  0  0  0
    0.5336   -3.0305   -0.5409 N   0  0  0  0  0  0  0  0  0  0  0  0
   -0.0204   -3.6479   -2.7632 N   0  0  0  0  0  0  0  0  0  0  0  0
    0.3444    0.8185    1.7009 S   0  0  0  0  0  0  0  0  0  0  0  0
   -0.9055    3.6112   -0.2185 H   0  0  0  0  0  0  0  0  0  0  0  0
   -0.8455    1.3949   -1.6634 H   0  0  0  0  0  0  0  0  0  0  0  0
   -0.6236   -0.7857   -2.5649 H   0  0  0  0  0  0  0  0  0  0  0  0
   -0.0361    3.1736    2.2284 H   0  0  0  0  0  0  0  0  0  0  0  0
    2.0563   -4.3958   -0.2645 H   0  0  0  0  0  0  0  0  0  0  0  0
    0.7813   -4.4086    1.0008 H   0  0  0  0  0  0  0  0  0  0  0  0
    0.4415   -5.1083   -0.6023 H   0  0  0  0  0  0  0  0  0  0  0  0
   -0.4131   -3.4300   -3.6916 H   0  0  0  0  0  0  0  0  0  0  0  0
    0.2094   -4.6403   -2.6023 H   0  0  0  0  0  0  0  0  0  0  0  0
  1  2  1  0  0  0  0
  1  4  2  0  0  0  0
  2  6  2  0  0  0  0
  3  5  1  0  0  0  0
  3  7  2  0  0  0  0
  4 12  1  0  0  0  0
  5  6  1  0  0  0  0
  5  9  2  0  0  0  0
  6 12  1  0  0  0  0
  7 10  1  0  0  0  0
  7 11  1  0  0  0  0
  8 10  1  0  0  0  0
  9 10  1  0  0  0  0
  1 13  1  0  0  0  0
  2 14  1  0  0  0  0
  3 15  1  0  0  0  0
  4 16  1  0  0  0  0
  8 17  1  0  0  0  0
  8 18  1  0  0  0  0
  8 19  1  0  0  0  0
 11 20  1  0  0  0  0
 11 21  1  0  0  0  0
M  END
$$$$
frag.vs.418
  -OEChem-01121112263D

 13 13  0     0  0  0  0  0  0999 V2000
    2.1607    0.6077   -0.0597 C   0  0  0  0  0  0  0  0  0  0  0  0
    2.6296    1.8901   -0.1674 C   0  0  0  0  0  0  0  0  0  0  0  0
    0.7635    0.7611   -0.0659 C   0  0  0  0  0  0  0  0  0  0  0  0
    3.9732    2.4794   -0.2221 C   0  0  0  0  0  0  0  0  0  0  0  0
    0.3941    2.0408   -0.1696 N   0  0  0  0  0  0  0  0  0  0  0  0
   -0.0692   -0.3065    0.0258 N   0  0  0  0  0  0  0  0  0  0  0  0
    1.5849    2.7545   -0.2338 O   0  0  0  0  0  0  0  0  0  0  0  0
    2.7463   -0.2976    0.0122 H   0  0  0  0  0  0  0  0  0  0  0  0
    4.3393    2.5577   -1.2619 H   0  0  0  0  0  0  0  0  0  0  0  0
    4.0062    3.4953    0.2150 H   0  0  0  0  0  0  0  0  0  0  0  0
    4.7167    1.8872    0.3443 H   0  0  0  0  0  0  0  0  0  0  0  0
    0.2867   -1.2695    0.0556 H   0  0  0  0  0  0  0  0  0  0  0  0
   -1.0897   -0.2027   -0.0259 H   0  0  0  0  0  0  0  0  0  0  0  0
  1  2  2  0  0  0  0
  1  3  1  0  0  0  0
  2  4  1  0  0  0  0
  2  7  1  0  0  0  0
  3  5  2  0  0  0  0
  3  6  1  0  0  0  0
  5  7  1  0  0  0  0
  1  8  1  0  0  0  0
  4  9  1  0  0  0  0
  4 10  1  0  0  0  0
  4 11  1  0  0  0  0
  6 12  1  0  0  0  0
  6 13  1  0  0  0  0
M  END
$$$$
frag.vs.419
  -OEChem-01121112263D

 19 20  0     0  0  0  0  0  0999 V2000
    1.4882    1.0885    1.1102 C   0  0  0  0  0  0  0  0  0  0  0  0
    0.1958    0.6327    0.8608 C   0  0  0  0  0  0  0  0  0  0  0  0
    1.7434    1.9019    2.2157 C   0  0  0  0  0  0  0  0  0  0  0  0
   -0.8472    0.9882    1.7157 C   0  0  0  0  0  0  0  0  0  0  0  0
    0.9287    3.0838    4.2034 C   0  0  0  0  0  0  0  0  0  0  0  0
   -1.6080    2.1925    3.7189 C   0  0  0  0  0  0  0  0  0  0  0  0
    0.7051    2.2697    3.0869 C   0  0  0  0  0  0  0  0  0  0  0  0
   -0.6020    1.8063    2.8310 C   0  0  0  0  0  0  0  0  0  0  0  0
   -0.1488    3.4025    5.0156 C   0  0  0  0  0  0  0  0  0  0  0  0
   -1.4124    2.9776    4.8022 N   0  0  0  0  0  0  0  0  0  0  0  0
    0.1096    4.2275    6.1388 N   0  0  0  0  0  0  0  0  0  0  0  0
    2.2995    0.8105    0.4436 H   0  0  0  0  0  0  0  0  0  0  0  0
   -0.0002   -0.0006    0.0005 H   0  0  0  0  0  0  0  0  0  0  0  0
    2.7602    2.2471    2.3904 H   0  0  0  0  0  0  0  0  0  0  0  0
   -1.8501    0.6232    1.5066 H   0  0  0  0  0  0  0  0  0  0  0  0
    1.9241    3.4580    4.4275 H   0  0  0  0  0  0  0  0  0  0  0  0
   -2.6364    1.8703    3.5801 H   0  0  0  0  0  0  0  0  0  0  0  0
    1.0485    4.5038    6.3267 H   0  0  0  0  0  0  0  0  0  0  0  0
   -0.6371    4.4336    6.7658 H   0  0  0  0  0  0  0  0  0  0  0  0
  1  2  1  0  0  0  0
  1  3  2  0  0  0  0
  2  4  2  0  0  0  0
  3  7  1  0  0  0  0
  4  8  1  0  0  0  0
  5  7  1  0  0  0  0
  5  9  2  0  0  0  0
  6  8  1  0  0  0  0
  6 10  2  0  0  0  0
  7  8  2  0  0  0  0
  9 10  1  0  0  0  0
  9 11  1  0  0  0  0
  1 12  1  0  0  0  0
  2 13  1  0  0  0  0
  3 14  1  0  0  0  0
  4 15  1  0  0  0  0
  5 16  1  0  0  0  0
  6 17  1  0  0  0  0
 11 18  1  0  0  0  0
 11 19  1  0  0  0  0
M  END
$$$$
frag.vs.420
  -OEChem-01121112263D

 19 19  0     0  0  0  0  0  0999 V2000
   -1.2151   -1.6725   -0.9422 C   0  0  0  0  0  0  0  0  0  0  0  0
   -0.2093   -1.0241   -0.2695 C   0  0  0  0  0  0  0  0  0  0  0  0
    0.1854   -3.1250   -0.3490 C   0  0  0  0  0  0  0  0  0  0  0  0
    0.0650    0.3706    0.0921 C   0  0  0  0  0  0  0  0  0  0  0  0
    0.9719   -4.3373   -0.0737 C   0  0  0  0  0  0  0  0  0  0  0  0
   -2.4283   -1.1124   -1.5542 C   0  0  0  0  0  0  0  0  0  0  0  0
   -0.9564   -3.0185   -0.9902 N   0  0  0  0  0  0  0  0  0  0  0  0
   -3.4425   -0.7537   -0.5829 N   0  0  0  0  0  0  0  0  0  0  0  0
    0.7040   -1.9569    0.1194 O   0  0  0  0  0  0  0  0  0  0  0  0
   -0.3671    0.6279    1.0769 H   0  0  0  0  0  0  0  0  0  0  0  0
    1.1489    0.5892    0.1433 H   0  0  0  0  0  0  0  0  0  0  0  0
   -0.3477    1.0875   -0.6437 H   0  0  0  0  0  0  0  0  0  0  0  0
    1.6956   -4.5398   -0.8827 H   0  0  0  0  0  0  0  0  0  0  0  0
    1.5430   -4.2608    0.8696 H   0  0  0  0  0  0  0  0  0  0  0  0
    0.3350   -5.2345    0.0328 H   0  0  0  0  0  0  0  0  0  0  0  0
   -2.2166   -0.1967   -2.1391 H   0  0  0  0  0  0  0  0  0  0  0  0
   -2.9098   -1.8142   -2.2618 H   0  0  0  0  0  0  0  0  0  0  0  0
   -4.4033   -0.7589   -0.8679 H   0  0  0  0  0  0  0  0  0  0  0  0
   -3.1549   -0.3187    0.2730 H   0  0  0  0  0  0  0  0  0  0  0  0
  1  2  2  0  0  0  0
  1  6  1  0  0  0  0
  1  7  1  0  0  0  0
  2  4  1  0  0  0  0
  2  9  1  0  0  0  0
  3  5  1  0  0  0  0
  3  7  2  0  0  0  0
  3  9  1  0  0  0  0
  6  8  1  0  0  0  0
  4 10  1  0  0  0  0
  4 11  1  0  0  0  0
  4 12  1  0  0  0  0
  5 13  1  0  0  0  0
  5 14  1  0  0  0  0
  5 15  1  0  0  0  0
  6 16  1  0  0  0  0
  6 17  1  0  0  0  0
  8 18  1  0  0  0  0
  8 19  1  0  0  0  0
M  END
$$$$
frag.vs.421
  -OEChem-01121112263D

 18 18  0     0  0  0  0  0  0999 V2000
   -1.2151   -1.6725   -0.9422 C   0  0  0  0  0  0  0  0  0  0  0  0
   -0.2093   -1.0241   -0.2695 C   0  0  0  0  0  0  0  0  0  0  0  0
    0.1854   -3.1250   -0.3490 C   0  0  0  0  0  0  0  0  0  0  0  0
    0.0650    0.3706    0.0921 C   0  0  0  0  0  0  0  0  0  0  0  0
    0.9719   -4.3373   -0.0737 C   0  0  0  0  0  0  0  0  0  0  0  0
   -2.4283   -1.1124   -1.5542 C   0  0  0  0  0  0  0  0  0  0  0  0
   -0.9564   -3.0185   -0.9902 N   0  0  0  0  0  0  0  0  0  0  0  0
    0.7040   -1.9569    0.1194 O   0  0  0  0  0  0  0  0  0  0  0  0
   -3.3807   -0.7743   -0.5430 O   0  0  0  0  0  0  0  0  0  0  0  0
   -0.3671    0.6279    1.0769 H   0  0  0  0  0  0  0  0  0  0  0  0
    1.1489    0.5892    0.1433 H   0  0  0  0  0  0  0  0  0  0  0  0
   -0.3477    1.0875   -0.6437 H   0  0  0  0  0  0  0  0  0  0  0  0
    1.6956   -4.5398   -0.8827 H   0  0  0  0  0  0  0  0  0  0  0  0
    1.5430   -4.2608    0.8696 H   0  0  0  0  0  0  0  0  0  0  0  0
    0.3350   -5.2345    0.0328 H   0  0  0  0  0  0  0  0  0  0  0  0
   -2.2218   -0.1966   -2.1402 H   0  0  0  0  0  0  0  0  0  0  0  0
   -2.9127   -1.8236   -2.2500 H   0  0  0  0  0  0  0  0  0  0  0  0
   -4.1514   -0.4135   -1.0053 H   0  0  0  0  0  0  0  0  0  0  0  0
  1  2  2  0  0  0  0
  1  6  1  0  0  0  0
  1  7  1  0  0  0  0
  2  4  1  0  0  0  0
  2  8  1  0  0  0  0
  3  5  1  0  0  0  0
  3  7  2  0  0  0  0
  3  8  1  0  0  0  0
  6  9  1  0  0  0  0
  4 10  1  0  0  0  0
  4 11  1  0  0  0  0
  4 12  1  0  0  0  0
  5 13  1  0  0  0  0
  5 14  1  0  0  0  0
  5 15  1  0  0  0  0
  6 16  1  0  0  0  0
  6 17  1  0  0  0  0
  9 18  1  0  0  0  0
M  END
$$$$
frag.vs.422
  -OEChem-01121112263D

 18 18  0     0  0  0  0  0  0999 V2000
    1.3879   -0.0684    1.6522 C   0  0  0  0  0  0  0  0  0  0  0  0
    0.2265   -0.4197    0.9733 C   0  0  0  0  0  0  0  0  0  0  0  0
    1.6520   -0.6227    2.8997 C   0  0  0  0  0  0  0  0  0  0  0  0
   -0.6317   -1.3224    1.5803 C   0  0  0  0  0  0  0  0  0  0  0  0
    0.7299   -1.5161    3.4206 C   0  0  0  0  0  0  0  0  0  0  0  0
   -1.8875   -1.7228    0.8804 C   0  0  0  0  0  0  0  0  0  0  0  0
    0.9808   -2.1308    4.7573 C   0  0  0  0  0  0  0  0  0  0  0  0
   -0.4092   -1.8816    2.7908 N   0  0  0  0  0  0  0  0  0  0  0  0
    1.9847   -3.1305    4.6354 O   0  0  0  0  0  0  0  0  0  0  0  0
    2.0848    0.6373    1.2103 H   0  0  0  0  0  0  0  0  0  0  0  0
    0.0081    0.0065   -0.0001 H   0  0  0  0  0  0  0  0  0  0  0  0
    2.5550   -0.3581    3.4393 H   0  0  0  0  0  0  0  0  0  0  0  0
   -1.7089   -2.6027    0.2510 H   0  0  0  0  0  0  0  0  0  0  0  0
   -2.6830   -1.9625    1.5973 H   0  0  0  0  0  0  0  0  0  0  0  0
   -2.2650   -0.9108    0.2458 H   0  0  0  0  0  0  0  0  0  0  0  0
    1.3180   -1.3808    5.4853 H   0  0  0  0  0  0  0  0  0  0  0  0
    0.0685   -2.5926    5.1580 H   0  0  0  0  0  0  0  0  0  0  0  0
    2.1170   -3.5031    5.5219 H   0  0  0  0  0  0  0  0  0  0  0  0
  1  2  2  0  0  0  0
  1  3  1  0  0  0  0
  2  4  1  0  0  0  0
  3  5  2  0  0  0  0
  4  6  1  0  0  0  0
  4  8  2  0  0  0  0
  5  7  1  0  0  0  0
  5  8  1  0  0  0  0
  7  9  1  0  0  0  0
  1 10  1  0  0  0  0
  2 11  1  0  0  0  0
  3 12  1  0  0  0  0
  6 13  1  0  0  0  0
  6 14  1  0  0  0  0
  6 15  1  0  0  0  0
  7 16  1  0  0  0  0
  7 17  1  0  0  0  0
  9 18  1  0  0  0  0
M  END
$$$$
frag.vs.423
  -OEChem-01121112263D

 16 16  0     0  0  0  0  0  0999 V2000
    0.6549   -0.7784   -0.3640 C   0  0  0  0  0  0  0  0  0  0  0  0
    1.3133   -2.8020   -0.9371 C   0  0  0  0  0  0  0  0  0  0  0  0
    1.9499   -0.7740   -0.8259 C   0  0  0  0  0  0  0  0  0  0  0  0
   -1.0281   -2.6115   -0.0634 C   0  0  0  0  0  0  0  0  0  0  0  0
    2.8637    0.3704   -0.9625 C   0  0  0  0  0  0  0  0  0  0  0  0
    2.3537   -2.0366   -1.1813 N   0  0  0  0  0  0  0  0  0  0  0  0
    0.2603   -2.0844   -0.4416 N   0  0  0  0  0  0  0  0  0  0  0  0
    3.8456    0.3440    0.0759 O   0  0  0  0  0  0  0  0  0  0  0  0
    0.0021    0.0041   -0.0023 H   0  0  0  0  0  0  0  0  0  0  0  0
    1.2637   -3.8702   -1.0977 H   0  0  0  0  0  0  0  0  0  0  0  0
   -1.6795   -2.5716   -0.9404 H   0  0  0  0  0  0  0  0  0  0  0  0
   -0.9128   -3.6431    0.2806 H   0  0  0  0  0  0  0  0  0  0  0  0
   -1.4415   -2.0072    0.7490 H   0  0  0  0  0  0  0  0  0  0  0  0
    3.3984    0.3696   -1.9310 H   0  0  0  0  0  0  0  0  0  0  0  0
    2.3322    1.3386   -0.9010 H   0  0  0  0  0  0  0  0  0  0  0  0
    4.4131    1.1158   -0.0666 H   0  0  0  0  0  0  0  0  0  0  0  0
  1  3  2  0  0  0  0
  1  7  1  0  0  0  0
  2  6  2  0  0  0  0
  2  7  1  0  0  0  0
  3  5  1  0  0  0  0
  3  6  1  0  0  0  0
  4  7  1  0  0  0  0
  5  8  1  0  0  0  0
  1  9  1  0  0  0  0
  2 10  1  0  0  0  0
  4 11  1  0  0  0  0
  4 12  1  0  0  0  0
  4 13  1  0  0  0  0
  5 14  1  0  0  0  0
  5 15  1  0  0  0  0
  8 16  1  0  0  0  0
M  END
$$$$
frag.vs.424
  -OEChem-01121112263D

 23 24  0     0  0  0  0  0  0999 V2000
    1.8851   -1.0363   -0.1124 C   0  0  0  0  0  0  0  0  0  0  0  0
    0.8066   -0.4630    0.5610 C   0  0  0  0  0  0  0  0  0  0  0  0
    2.9210   -1.6309    0.6081 C   0  0  0  0  0  0  0  0  0  0  0  0
    1.7997   -1.0786    2.6757 C   0  0  0  0  0  0  0  0  0  0  0  0
   -1.0537    1.1755    2.1403 C   0  0  0  0  0  0  0  0  0  0  0  0
    0.7638   -0.4841    1.9551 C   0  0  0  0  0  0  0  0  0  0  0  0
    2.8783   -1.6520    2.0022 C   0  0  0  0  0  0  0  0  0  0  0  0
   -0.3471    0.1056    2.6483 C   0  0  0  0  0  0  0  0  0  0  0  0
   -1.7966    0.3464    4.2764 C   0  0  0  0  0  0  0  0  0  0  0  0
   -2.5204    0.1315    5.5479 C   0  0  0  0  0  0  0  0  0  0  0  0
   -0.7713   -0.3709    3.8733 N   0  0  0  0  0  0  0  0  0  0  0  0
    3.9261   -2.2536    2.7300 N   0  0  0  0  0  0  0  0  0  0  0  0
   -2.3036    1.6097    3.2315 S   0  0  0  0  0  0  0  0  0  0  0  0
    1.9184   -1.0196   -1.1980 H   0  0  0  0  0  0  0  0  0  0  0  0
    0.0067   -0.0035   -0.0145 H   0  0  0  0  0  0  0  0  0  0  0  0
    3.7569   -2.0740    0.0727 H   0  0  0  0  0  0  0  0  0  0  0  0
    1.7723   -1.0973    3.7636 H   0  0  0  0  0  0  0  0  0  0  0  0
   -0.9084    1.7111    1.2122 H   0  0  0  0  0  0  0  0  0  0  0  0
   -2.0727    0.7233    6.3617 H   0  0  0  0  0  0  0  0  0  0  0  0
   -3.5827    0.4152    5.4693 H   0  0  0  0  0  0  0  0  0  0  0  0
   -2.5075   -0.9275    5.8543 H   0  0  0  0  0  0  0  0  0  0  0  0
    4.6695   -2.7023    2.2341 H   0  0  0  0  0  0  0  0  0  0  0  0
    3.8612   -2.3041    3.7265 H   0  0  0  0  0  0  0  0  0  0  0  0
  1  2  2  0  0  0  0
  1  3  1  0  0  0  0
  2  6  1  0  0  0  0
  3  7  2  0  0  0  0
  4  6  2  0  0  0  0
  4  7  1  0  0  0  0
  5  8  2  0  0  0  0
  5 13  1  0  0  0  0
  6  8  1  0  0  0  0
  7 12  1  0  0  0  0
  8 11  1  0  0  0  0
  9 10  1  0  0  0  0
  9 11  2  0  0  0  0
  9 13  1  0  0  0  0
  1 14  1  0  0  0  0
  2 15  1  0  0  0  0
  3 16  1  0  0  0  0
  4 17  1  0  0  0  0
  5 18  1  0  0  0  0
 10 19  1  0  0  0  0
 10 20  1  0  0  0  0
 10 21  1  0  0  0  0
 12 22  1  0  0  0  0
 12 23  1  0  0  0  0
M  END
$$$$
frag.vs.425
  -OEChem-01121112263D

 28 29  0     0  0  0  0  0  0999 V2000
    0.6383   -0.3105    0.8235 C   0  0  0  0  0  0  0  0  0  0  0  0
    0.0716   -0.5343    2.0827 C   0  0  0  0  0  0  0  0  0  0  0  0
    2.8602   -0.8780    1.6415 C   0  0  0  0  0  0  0  0  0  0  0  0
    2.0075   -0.4788    0.6046 C   0  0  0  0  0  0  0  0  0  0  0  0
    2.3079   -1.1070    2.9131 C   0  0  0  0  0  0  0  0  0  0  0  0
    0.9398   -0.9311    3.1003 C   0  0  0  0  0  0  0  0  0  0  0  0
    1.9446   -1.5634    4.9672 C   0  0  0  0  0  0  0  0  0  0  0  0
    2.0678   -1.9413    6.3872 C   0  0  0  0  0  0  0  0  0  0  0  0
    1.5826   -3.3778    6.6642 C   0  0  0  0  0  0  0  0  0  0  0  0
    2.3980   -4.4280    5.9226 C   0  0  0  0  0  0  0  0  0  0  0  0
    2.5727   -0.2290   -0.7546 C   0  0  0  0  0  0  0  0  0  0  0  0
    2.9153   -1.4999    4.0836 N   0  0  0  0  0  0  0  0  0  0  0  0
    0.7355   -1.2298    4.4230 N   0  0  0  0  0  0  0  0  0  0  0  0
    1.8734   -5.7137    6.2235 O   0  0  0  0  0  0  0  0  0  0  0  0
    1.6375    0.1545   -1.6725 F   0  0  0  0  0  0  0  0  0  0  0  0
    3.5208    0.7530   -0.7787 F   0  0  0  0  0  0  0  0  0  0  0  0
    3.1742   -1.3338   -1.2825 F   0  0  0  0  0  0  0  0  0  0  0  0
   -0.0088    0.0004    0.0056 H   0  0  0  0  0  0  0  0  0  0  0  0
   -0.9908   -0.4047    2.2553 H   0  0  0  0  0  0  0  0  0  0  0  0
    3.9244   -1.0085    1.4714 H   0  0  0  0  0  0  0  0  0  0  0  0
    1.4974   -1.2496    7.0404 H   0  0  0  0  0  0  0  0  0  0  0  0
    3.1165   -1.8548    6.7385 H   0  0  0  0  0  0  0  0  0  0  0  0
    0.5252   -3.4760    6.3852 H   0  0  0  0  0  0  0  0  0  0  0  0
    1.6199   -3.5840    7.7420 H   0  0  0  0  0  0  0  0  0  0  0  0
    2.3416   -4.2738    4.8403 H   0  0  0  0  0  0  0  0  0  0  0  0
    3.4472   -4.3986    6.2332 H   0  0  0  0  0  0  0  0  0  0  0  0
   -0.1522   -1.2071    4.9074 H   0  0  0  0  0  0  0  0  0  0  0  0
    2.4132   -6.3578    5.7372 H   0  0  0  0  0  0  0  0  0  0  0  0
  1  2  1  0  0  0  0
  1  4  2  0  0  0  0
  2  6  2  0  0  0  0
  3  4  1  0  0  0  0
  3  5  2  0  0  0  0
  4 11  1  0  0  0  0
  5  6  1  0  0  0  0
  5 12  1  0  0  0  0
  6 13  1  0  0  0  0
  7  8  1  0  0  0  0
  7 12  2  0  0  0  0
  7 13  1  0  0  0  0
  8  9  1  0  0  0  0
  9 10  1  0  0  0  0
 10 14  1  0  0  0  0
 11 15  1  0  0  0  0
 11 16  1  0  0  0  0
 11 17  1  0  0  0  0
  1 18  1  0  0  0  0
  2 19  1  0  0  0  0
  3 20  1  0  0  0  0
  8 21  1  0  0  0  0
  8 22  1  0  0  0  0
  9 23  1  0  0  0  0
  9 24  1  0  0  0  0
 10 25  1  0  0  0  0
 10 26  1  0  0  0  0
 13 27  1  0  0  0  0
 14 28  1  0  0  0  0
M  END
$$$$
frag.vs.426
  -OEChem-01121112263D

 21 22  0     0  0  0  0  0  0999 V2000
    2.0075   -0.4788    0.6046 C   0  0  0  0  0  0  0  0  0  0  0  0
    0.6383   -0.3105    0.8235 C   0  0  0  0  0  0  0  0  0  0  0  0
    2.8602   -0.8780    1.6415 C   0  0  0  0  0  0  0  0  0  0  0  0
    0.0716   -0.5343    2.0827 C   0  0  0  0  0  0  0  0  0  0  0  0
    2.3079   -1.1070    2.9131 C   0  0  0  0  0  0  0  0  0  0  0  0
    0.9398   -0.9311    3.1003 C   0  0  0  0  0  0  0  0  0  0  0  0
    1.9446   -1.5634    4.9672 C   0  0  0  0  0  0  0  0  0  0  0  0
    2.1785   -1.9428    6.3233 C   0  0  0  0  0  0  0  0  0  0  0  0
   -0.5316   -1.1968    5.1175 C   0  0  0  0  0  0  0  0  0  0  0  0
    2.9153   -1.4999    4.0836 N   0  0  0  0  0  0  0  0  0  0  0  0
    0.7355   -1.2298    4.4230 N   0  0  0  0  0  0  0  0  0  0  0  0
    1.3198   -2.0302    7.2290 O   0  0  0  0  0  0  0  0  0  0  0  0
    3.4931   -2.2271    6.5931 O   0  0  0  0  0  0  0  0  0  0  0  0
    2.4182   -0.2969   -0.3852 H   0  0  0  0  0  0  0  0  0  0  0  0
   -0.0000   -0.0002   -0.0001 H   0  0  0  0  0  0  0  0  0  0  0  0
    3.9224   -1.0085    1.4609 H   0  0  0  0  0  0  0  0  0  0  0  0
   -0.9912   -0.4032    2.2516 H   0  0  0  0  0  0  0  0  0  0  0  0
   -0.9904   -2.1851    5.0294 H   0  0  0  0  0  0  0  0  0  0  0  0
   -0.3644   -0.9452    6.1685 H   0  0  0  0  0  0  0  0  0  0  0  0
   -1.1722   -0.4350    4.6645 H   0  0  0  0  0  0  0  0  0  0  0  0
    3.6643   -2.4899    7.5226 H   0  0  0  0  0  0  0  0  0  0  0  0
  1  2  1  0  0  0  0
  1  3  2  0  0  0  0
  2  4  2  0  0  0  0
  3  5  1  0  0  0  0
  4  6  1  0  0  0  0
  5  6  2  0  0  0  0
  5 10  1  0  0  0  0
  6 11  1  0  0  0  0
  7  8  1  0  0  0  0
  7 10  2  0  0  0  0
  7 11  1  0  0  0  0
  8 12  2  0  0  0  0
  8 13  1  0  0  0  0
  9 11  1  0  0  0  0
  1 14  1  0  0  0  0
  2 15  1  0  0  0  0
  3 16  1  0  0  0  0
  4 17  1  0  0  0  0
  9 18  1  0  0  0  0
  9 19  1  0  0  0  0
  9 20  1  0  0  0  0
 13 21  1  0  0  0  0
M  END
$$$$
frag.vs.427
  -OEChem-01121112263D

 16 16  0     0  0  0  0  0  0999 V2000
    1.3879   -0.0684    1.6522 C   0  0  0  0  0  0  0  0  0  0  0  0
    1.6520   -0.6227    2.8997 C   0  0  0  0  0  0  0  0  0  0  0  0
   -0.6317   -1.3224    1.5803 C   0  0  0  0  0  0  0  0  0  0  0  0
    0.2265   -0.4197    0.9733 C   0  0  0  0  0  0  0  0  0  0  0  0
    0.7299   -1.5161    3.4206 C   0  0  0  0  0  0  0  0  0  0  0  0
   -0.0837    0.1554   -0.3629 C   0  0  0  0  0  0  0  0  0  0  0  0
   -0.4092   -1.8816    2.7908 N   0  0  0  0  0  0  0  0  0  0  0  0
    1.0132   -2.0716    4.6932 N   0  0  0  0  0  0  0  0  0  0  0  0
    2.0919    0.6355    1.2167 H   0  0  0  0  0  0  0  0  0  0  0  0
    2.5563   -0.3543    3.4364 H   0  0  0  0  0  0  0  0  0  0  0  0
   -1.5532   -1.6346    1.0987 H   0  0  0  0  0  0  0  0  0  0  0  0
    0.3346   -0.4735   -1.1603 H   0  0  0  0  0  0  0  0  0  0  0  0
   -1.1679    0.2392   -0.5231 H   0  0  0  0  0  0  0  0  0  0  0  0
    0.3291    1.1685   -0.4706 H   0  0  0  0  0  0  0  0  0  0  0  0
    1.8743   -1.8400    5.1384 H   0  0  0  0  0  0  0  0  0  0  0  0
    0.3905   -2.7525    5.0701 H   0  0  0  0  0  0  0  0  0  0  0  0
  1  2  2  0  0  0  0
  1  4  1  0  0  0  0
  2  5  1  0  0  0  0
  3  4  2  0  0  0  0
  3  7  1  0  0  0  0
  4  6  1  0  0  0  0
  5  7  2  0  0  0  0
  5  8  1  0  0  0  0
  1  9  1  0  0  0  0
  2 10  1  0  0  0  0
  3 11  1  0  0  0  0
  6 12  1  0  0  0  0
  6 13  1  0  0  0  0
  6 14  1  0  0  0  0
  8 15  1  0  0  0  0
  8 16  1  0  0  0  0
M  END
$$$$
frag.vs.428
  -OEChem-01121112263D

 27 28  0     0  0  0  0  0  0999 V2000
    1.8863   -1.0355   -0.1124 C   0  0  0  0  0  0  0  0  0  0  0  0
    2.6216   -0.1056    0.6227 C   0  0  0  0  0  0  0  0  0  0  0  0
    1.1076   -1.9869    0.5466 C   0  0  0  0  0  0  0  0  0  0  0  0
    2.5783   -0.1272    2.0167 C   0  0  0  0  0  0  0  0  0  0  0  0
    1.0644   -2.0085    1.9406 C   0  0  0  0  0  0  0  0  0  0  0  0
    2.7826   -0.7065    6.1105 C   0  0  0  0  0  0  0  0  0  0  0  0
    1.7997   -1.0786    2.6757 C   0  0  0  0  0  0  0  0  0  0  0  0
    1.6707   -1.1370    6.8052 C   0  0  0  0  0  0  0  0  0  0  0  0
    0.6048   -1.5474    6.0307 C   0  0  0  0  0  0  0  0  0  0  0  0
    1.7549   -1.1005    4.1216 C   0  0  0  0  0  0  0  0  0  0  0  0
   -0.6522   -2.0336    6.6731 C   0  0  0  0  0  0  0  0  0  0  0  0
    1.6487   -1.1467    8.2902 C   0  0  0  0  0  0  0  0  0  0  0  0
    2.8593   -0.6749    4.7639 N   0  0  0  0  0  0  0  0  0  0  0  0
    0.6126   -1.5423    4.6816 N   0  0  0  0  0  0  0  0  0  0  0  0
    0.8526   -0.0649    8.7642 O   0  0  0  0  0  0  0  0  0  0  0  0
    1.9188   -1.0174   -1.1978 H   0  0  0  0  0  0  0  0  0  0  0  0
    3.2266    0.6363    0.1097 H   0  0  0  0  0  0  0  0  0  0  0  0
    0.5338   -2.7103   -0.0252 H   0  0  0  0  0  0  0  0  0  0  0  0
    3.1570    0.6046    2.5755 H   0  0  0  0  0  0  0  0  0  0  0  0
    0.4524   -2.7556    2.4404 H   0  0  0  0  0  0  0  0  0  0  0  0
    3.6733   -0.3617    6.6262 H   0  0  0  0  0  0  0  0  0  0  0  0
   -1.3427   -1.1982    6.8380 H   0  0  0  0  0  0  0  0  0  0  0  0
   -1.1535   -2.7828    6.0476 H   0  0  0  0  0  0  0  0  0  0  0  0
   -0.4451   -2.5115    7.6388 H   0  0  0  0  0  0  0  0  0  0  0  0
    1.2291   -2.0848    8.6850 H   0  0  0  0  0  0  0  0  0  0  0  0
    2.6616   -1.0438    8.7089 H   0  0  0  0  0  0  0  0  0  0  0  0
    0.8685   -0.1128    9.7328 H   0  0  0  0  0  0  0  0  0  0  0  0
  1  2  1  0  0  0  0
  1  3  2  0  0  0  0
  2  4  2  0  0  0  0
  3  5  1  0  0  0  0
  4  7  1  0  0  0  0
  5  7  2  0  0  0  0
  6  8  2  0  0  0  0
  6 13  1  0  0  0  0
  7 10  1  0  0  0  0
  8  9  1  0  0  0  0
  8 12  1  0  0  0  0
  9 11  1  0  0  0  0
  9 14  2  0  0  0  0
 10 13  2  0  0  0  0
 10 14  1  0  0  0  0
 12 15  1  0  0  0  0
  1 16  1  0  0  0  0
  2 17  1  0  0  0  0
  3 18  1  0  0  0  0
  4 19  1  0  0  0  0
  5 20  1  0  0  0  0
  6 21  1  0  0  0  0
 11 22  1  0  0  0  0
 11 23  1  0  0  0  0
 11 24  1  0  0  0  0
 12 25  1  0  0  0  0
 12 26  1  0  0  0  0
 15 27  1  0  0  0  0
M  END
$$$$
frag.vs.429
  -OEChem-01121112263D

 28 29  0     0  0  0  0  0  0999 V2000
    4.9437   -3.0392   -7.3711 C   0  0  0  0  0  0  0  0  0  0  0  0
    4.4227   -1.4274   -5.6163 C   0  0  0  0  0  0  0  0  0  0  0  0
    4.1280   -2.5974   -6.2860 C   0  0  0  0  0  0  0  0  0  0  0  0
    3.0172   -3.2803   -5.8343 C   0  0  0  0  0  0  0  0  0  0  0  0
    2.6371   -1.7074   -4.2379 C   0  0  0  0  0  0  0  0  0  0  0  0
    0.1891   -0.2002   -1.0604 C   0  0  0  0  0  0  0  0  0  0  0  0
    0.3405   -1.6994   -1.2857 C   0  0  0  0  0  0  0  0  0  0  0  0
    1.4503    0.5288   -1.5083 C   0  0  0  0  0  0  0  0  0  0  0  0
    0.6905   -2.0183   -2.7385 C   0  0  0  0  0  0  0  0  0  0  0  0
    1.7930    0.2099   -2.9618 C   0  0  0  0  0  0  0  0  0  0  0  0
    5.6068   -3.3984   -8.2532 N   0  0  0  0  0  0  0  0  0  0  0  0
    3.6961   -0.9511   -4.5841 N   0  0  0  0  0  0  0  0  0  0  0  0
    2.2461   -2.8627   -4.8089 N   0  0  0  0  0  0  0  0  0  0  0  0
    1.8600   -1.2437   -3.1694 N   0  0  0  0  0  0  0  0  0  0  0  0
    2.6555   -4.4905   -6.4772 N   0  0  0  0  0  0  0  0  0  0  0  0
    5.2752   -0.8126   -5.8903 H   0  0  0  0  0  0  0  0  0  0  0  0
   -0.6759    0.1739   -1.6212 H   0  0  0  0  0  0  0  0  0  0  0  0
   -0.0005    0.0003   -0.0001 H   0  0  0  0  0  0  0  0  0  0  0  0
    1.1311   -2.0842   -0.6290 H   0  0  0  0  0  0  0  0  0  0  0  0
   -0.5859   -2.2139   -1.0072 H   0  0  0  0  0  0  0  0  0  0  0  0
    1.3181    1.6098   -1.3884 H   0  0  0  0  0  0  0  0  0  0  0  0
    2.2871    0.2328   -0.8630 H   0  0  0  0  0  0  0  0  0  0  0  0
    0.8932   -3.0932   -2.8238 H   0  0  0  0  0  0  0  0  0  0  0  0
   -0.1660   -1.7886   -3.3855 H   0  0  0  0  0  0  0  0  0  0  0  0
    1.0373    0.6467   -3.6275 H   0  0  0  0  0  0  0  0  0  0  0  0
    2.7575    0.6728   -3.2056 H   0  0  0  0  0  0  0  0  0  0  0  0
    3.1834   -4.7921   -7.2669 H   0  0  0  0  0  0  0  0  0  0  0  0
    1.8274   -4.9615   -6.1845 H   0  0  0  0  0  0  0  0  0  0  0  0
  1  3  1  0  0  0  0
  1 11  3  0  0  0  0
  2  3  1  0  0  0  0
  2 12  2  0  0  0  0
  3  4  2  0  0  0  0
  4 13  1  0  0  0  0
  4 15  1  0  0  0  0
  5 12  1  0  0  0  0
  5 13  2  0  0  0  0
  5 14  1  0  0  0  0
  6  7  1  0  0  0  0
  6  8  1  0  0  0  0
  7  9  1  0  0  0  0
  8 10  1  0  0  0  0
  9 14  1  0  0  0  0
 10 14  1  0  0  0  0
  2 16  1  0  0  0  0
  6 17  1  0  0  0  0
  6 18  1  0  0  0  0
  7 19  1  0  0  0  0
  7 20  1  0  0  0  0
  8 21  1  0  0  0  0
  8 22  1  0  0  0  0
  9 23  1  0  0  0  0
  9 24  1  0  0  0  0
 10 25  1  0  0  0  0
 10 26  1  0  0  0  0
 15 27  1  0  0  0  0
 15 28  1  0  0  0  0
M  END
$$$$
frag.vs.430
  -OEChem-01121112263D

 27 28  0     0  0  0  0  0  0999 V2000
    1.8862   -1.0367   -0.1124 C   0  0  0  0  0  0  0  0  0  0  0  0
    0.6672   -1.2016    0.5451 C   0  0  0  0  0  0  0  0  0  0  0  0
    3.0620   -0.8929    0.6241 C   0  0  0  0  0  0  0  0  0  0  0  0
    0.6239   -1.2225    1.9391 C   0  0  0  0  0  0  0  0  0  0  0  0
    3.0188   -0.9138    2.0181 C   0  0  0  0  0  0  0  0  0  0  0  0
    1.7997   -1.0786    2.6757 C   0  0  0  0  0  0  0  0  0  0  0  0
    1.2861   -1.1852    6.1655 C   0  0  0  0  0  0  0  0  0  0  0  0
    2.6433   -1.0072    6.0608 C   0  0  0  0  0  0  0  0  0  0  0  0
    1.7549   -1.1012    4.1171 C   0  0  0  0  0  0  0  0  0  0  0  0
    0.0812   -2.7491    7.6553 C   0  0  0  0  0  0  0  0  0  0  0  0
    3.7490   -0.8767    7.0155 C   0  0  0  0  0  0  0  0  0  0  0  0
    0.4601   -1.3084    7.3747 C   0  0  0  0  0  0  0  0  0  0  0  0
    0.7223   -1.2445    4.9167 N   0  0  0  0  0  0  0  0  0  0  0  0
    0.3428   -3.6823    6.9068 O   0  0  0  0  0  0  0  0  0  0  0  0
    2.9577   -0.9514    4.7366 O   0  0  0  0  0  0  0  0  0  0  0  0
   -0.6270   -2.8929    8.8035 O   0  0  0  0  0  0  0  0  0  0  0  0
    1.9199   -1.0211   -1.1979 H   0  0  0  0  0  0  0  0  0  0  0  0
   -0.2483   -1.3134   -0.0286 H   0  0  0  0  0  0  0  0  0  0  0  0
    4.0114   -0.7656    0.1121 H   0  0  0  0  0  0  0  0  0  0  0  0
   -0.3338   -1.3545    2.4369 H   0  0  0  0  0  0  0  0  0  0  0  0
    3.9440   -0.7993    2.5779 H   0  0  0  0  0  0  0  0  0  0  0  0
    4.1882   -1.8600    7.2660 H   0  0  0  0  0  0  0  0  0  0  0  0
    4.5688   -0.2411    6.6293 H   0  0  0  0  0  0  0  0  0  0  0  0
    3.4331   -0.4074    7.9672 H   0  0  0  0  0  0  0  0  0  0  0  0
   -0.4631   -0.7022    7.3300 H   0  0  0  0  0  0  0  0  0  0  0  0
    0.9806   -0.9345    8.2759 H   0  0  0  0  0  0  0  0  0  0  0  0
   -0.9229   -3.8068    9.0024 H   0  0  0  0  0  0  0  0  0  0  0  0
  1  2  1  0  0  0  0
  1  3  2  0  0  0  0
  2  4  2  0  0  0  0
  3  5  1  0  0  0  0
  4  6  1  0  0  0  0
  5  6  2  0  0  0  0
  6  9  1  0  0  0  0
  7  8  2  0  0  0  0
  7 12  1  0  0  0  0
  7 13  1  0  0  0  0
  8 11  1  0  0  0  0
  8 15  1  0  0  0  0
  9 13  2  0  0  0  0
  9 15  1  0  0  0  0
 10 12  1  0  0  0  0
 10 14  2  0  0  0  0
 10 16  1  0  0  0  0
  1 17  1  0  0  0  0
  2 18  1  0  0  0  0
  3 19  1  0  0  0  0
  4 20  1  0  0  0  0
  5 21  1  0  0  0  0
 11 22  1  0  0  0  0
 11 23  1  0  0  0  0
 11 24  1  0  0  0  0
 12 25  1  0  0  0  0
 12 26  1  0  0  0  0
 16 27  1  0  0  0  0
M  END
$$$$
frag.vs.431
  -OEChem-01121112263D

 28 29  0     0  0  0  0  0  0999 V2000
    1.8862   -1.0367   -0.1124 C   0  0  0  0  0  0  0  0  0  0  0  0
    0.6672   -1.2016    0.5451 C   0  0  0  0  0  0  0  0  0  0  0  0
    3.0620   -0.8929    0.6241 C   0  0  0  0  0  0  0  0  0  0  0  0
    0.6239   -1.2225    1.9391 C   0  0  0  0  0  0  0  0  0  0  0  0
    3.0188   -0.9138    2.0181 C   0  0  0  0  0  0  0  0  0  0  0  0
    1.7997   -1.0786    2.6757 C   0  0  0  0  0  0  0  0  0  0  0  0
    1.2861   -1.1852    6.1655 C   0  0  0  0  0  0  0  0  0  0  0  0
    2.6433   -1.0072    6.0608 C   0  0  0  0  0  0  0  0  0  0  0  0
    1.7549   -1.1012    4.1171 C   0  0  0  0  0  0  0  0  0  0  0  0
    3.7490   -0.8767    7.0155 C   0  0  0  0  0  0  0  0  0  0  0  0
    0.4601   -1.3084    7.3747 C   0  0  0  0  0  0  0  0  0  0  0  0
    0.5373   -2.6913    8.0452 C   0  0  0  0  0  0  0  0  0  0  0  0
    0.7223   -1.2445    4.9167 N   0  0  0  0  0  0  0  0  0  0  0  0
    2.9577   -0.9514    4.7366 O   0  0  0  0  0  0  0  0  0  0  0  0
    0.1220   -3.6883    7.1203 O   0  0  0  0  0  0  0  0  0  0  0  0
    1.9199   -1.0211   -1.1979 H   0  0  0  0  0  0  0  0  0  0  0  0
   -0.2483   -1.3134   -0.0286 H   0  0  0  0  0  0  0  0  0  0  0  0
    4.0114   -0.7656    0.1121 H   0  0  0  0  0  0  0  0  0  0  0  0
   -0.3338   -1.3545    2.4369 H   0  0  0  0  0  0  0  0  0  0  0  0
    3.9440   -0.7993    2.5779 H   0  0  0  0  0  0  0  0  0  0  0  0
    4.1882   -1.8600    7.2660 H   0  0  0  0  0  0  0  0  0  0  0  0
    4.5688   -0.2411    6.6293 H   0  0  0  0  0  0  0  0  0  0  0  0
    3.4331   -0.4074    7.9672 H   0  0  0  0  0  0  0  0  0  0  0  0
    0.7385   -0.5443    8.1287 H   0  0  0  0  0  0  0  0  0  0  0  0
   -0.6052   -1.1096    7.1423 H   0  0  0  0  0  0  0  0  0  0  0  0
    1.5642   -2.9214    8.3472 H   0  0  0  0  0  0  0  0  0  0  0  0
   -0.1082   -2.7382    8.9284 H   0  0  0  0  0  0  0  0  0  0  0  0
    0.1854   -4.5405    7.5807 H   0  0  0  0  0  0  0  0  0  0  0  0
  1  2  1  0  0  0  0
  1  3  2  0  0  0  0
  2  4  2  0  0  0  0
  3  5  1  0  0  0  0
  4  6  1  0  0  0  0
  5  6  2  0  0  0  0
  6  9  1  0  0  0  0
  7  8  2  0  0  0  0
  7 11  1  0  0  0  0
  7 13  1  0  0  0  0
  8 10  1  0  0  0  0
  8 14  1  0  0  0  0
  9 13  2  0  0  0  0
  9 14  1  0  0  0  0
 11 12  1  0  0  0  0
 12 15  1  0  0  0  0
  1 16  1  0  0  0  0
  2 17  1  0  0  0  0
  3 18  1  0  0  0  0
  4 19  1  0  0  0  0
  5 20  1  0  0  0  0
 10 21  1  0  0  0  0
 10 22  1  0  0  0  0
 10 23  1  0  0  0  0
 11 24  1  0  0  0  0
 11 25  1  0  0  0  0
 12 26  1  0  0  0  0
 12 27  1  0  0  0  0
 15 28  1  0  0  0  0
M  END
$$$$
frag.vs.432
  -OEChem-01121112263D

 24 25  0     0  0  0  0  0  0999 V2000
   -0.4727   -2.7121    0.9308 C   0  0  0  0  0  0  0  0  0  0  0  0
   -0.9656   -2.7468    2.2351 C   0  0  0  0  0  0  0  0  0  0  0  0
    0.7705   -2.1355    0.6701 C   0  0  0  0  0  0  0  0  0  0  0  0
    4.2892   -2.2780    6.3790 C   0  0  0  0  0  0  0  0  0  0  0  0
   -0.2154   -2.2050    3.2788 C   0  0  0  0  0  0  0  0  0  0  0  0
    1.5206   -1.5937    1.7138 C   0  0  0  0  0  0  0  0  0  0  0  0
    3.4049   -1.4204    5.7341 C   0  0  0  0  0  0  0  0  0  0  0  0
    3.5834   -4.0187    4.9202 C   0  0  0  0  0  0  0  0  0  0  0  0
    4.3862   -3.6034    5.9704 C   0  0  0  0  0  0  0  0  0  0  0  0
    1.0277   -1.6284    3.0182 C   0  0  0  0  0  0  0  0  0  0  0  0
    2.6462   -1.9333    4.6944 C   0  0  0  0  0  0  0  0  0  0  0  0
    2.7128   -3.2150    4.2694 N   0  0  0  0  0  0  0  0  0  0  0  0
    5.2701   -4.4925    6.6032 N   0  0  0  0  0  0  0  0  0  0  0  0
    1.7593   -1.0981    4.0359 O   0  0  0  0  0  0  0  0  0  0  0  0
   -1.0562   -3.1344    0.1179 H   0  0  0  0  0  0  0  0  0  0  0  0
   -1.9336   -3.1956    2.4383 H   0  0  0  0  0  0  0  0  0  0  0  0
    1.1537   -2.1090   -0.3459 H   0  0  0  0  0  0  0  0  0  0  0  0
    4.8995   -1.9035    7.1965 H   0  0  0  0  0  0  0  0  0  0  0  0
   -0.6058   -2.2339    4.2925 H   0  0  0  0  0  0  0  0  0  0  0  0
    2.4876   -1.1442    1.5045 H   0  0  0  0  0  0  0  0  0  0  0  0
    3.3184   -0.3836    6.0403 H   0  0  0  0  0  0  0  0  0  0  0  0
    3.6159   -5.0413    4.5563 H   0  0  0  0  0  0  0  0  0  0  0  0
    5.8738   -4.1555    7.3296 H   0  0  0  0  0  0  0  0  0  0  0  0
    5.3563   -5.4309    6.2599 H   0  0  0  0  0  0  0  0  0  0  0  0
  1  2  1  0  0  0  0
  1  3  2  0  0  0  0
  2  5  2  0  0  0  0
  3  6  1  0  0  0  0
  4  7  2  0  0  0  0
  4  9  1  0  0  0  0
  5 10  1  0  0  0  0
  6 10  2  0  0  0  0
  7 11  1  0  0  0  0
  8  9  2  0  0  0  0
  8 12  1  0  0  0  0
  9 13  1  0  0  0  0
 10 14  1  0  0  0  0
 11 12  2  0  0  0  0
 11 14  1  0  0  0  0
  1 15  1  0  0  0  0
  2 16  1  0  0  0  0
  3 17  1  0  0  0  0
  4 18  1  0  0  0  0
  5 19  1  0  0  0  0
  6 20  1  0  0  0  0
  7 21  1  0  0  0  0
  8 22  1  0  0  0  0
 13 23  1  0  0  0  0
 13 24  1  0  0  0  0
M  END
$$$$
frag.vs.433
  -OEChem-01121112263D

 25 26  0     0  0  0  0  0  0999 V2000
    1.8845   -1.0348   -0.1124 C   0  0  0  0  0  0  0  0  0  0  0  0
    1.7190    0.1535    0.5990 C   0  0  0  0  0  0  0  0  0  0  0  0
    2.0076   -2.2450    0.5701 C   0  0  0  0  0  0  0  0  0  0  0  0
    1.6766    0.1316    1.9931 C   0  0  0  0  0  0  0  0  0  0  0  0
    1.9652   -2.2669    1.9642 C   0  0  0  0  0  0  0  0  0  0  0  0
    1.7997   -1.0786    2.6757 C   0  0  0  0  0  0  0  0  0  0  0  0
    1.5337   -1.8098    6.1808 C   0  0  0  0  0  0  0  0  0  0  0  0
    1.8345   -0.4902    6.4457 C   0  0  0  0  0  0  0  0  0  0  0  0
    1.7549   -1.1012    4.1171 C   0  0  0  0  0  0  0  0  0  0  0  0
    1.2618   -2.8576    7.1858 C   0  0  0  0  0  0  0  0  0  0  0  0
    1.9642    0.2153    7.7367 C   0  0  0  0  0  0  0  0  0  0  0  0
    1.4872   -2.1619    4.8460 N   0  0  0  0  0  0  0  0  0  0  0  0
    0.6720    0.4499    8.2954 O   0  0  0  0  0  0  0  0  0  0  0  0
    2.0726    0.3528    4.9713 S   0  0  0  0  0  0  0  0  0  0  0  0
    1.9169   -1.0177   -1.1979 H   0  0  0  0  0  0  0  0  0  0  0  0
    1.6234    1.0958    0.0673 H   0  0  0  0  0  0  0  0  0  0  0  0
    2.1354   -3.1704    0.0161 H   0  0  0  0  0  0  0  0  0  0  0  0
    1.5443    1.0660    2.5332 H   0  0  0  0  0  0  0  0  0  0  0  0
    2.0637   -3.2183    2.4816 H   0  0  0  0  0  0  0  0  0  0  0  0
    0.1879   -2.9050    7.4282 H   0  0  0  0  0  0  0  0  0  0  0  0
    1.5715   -3.8564    6.8350 H   0  0  0  0  0  0  0  0  0  0  0  0
    1.8109   -2.6801    8.1259 H   0  0  0  0  0  0  0  0  0  0  0  0
    2.5520   -0.3644    8.4697 H   0  0  0  0  0  0  0  0  0  0  0  0
    2.4709    1.1895    7.6240 H   0  0  0  0  0  0  0  0  0  0  0  0
    0.8161    0.9119    9.1351 H   0  0  0  0  0  0  0  0  0  0  0  0
  1  2  1  0  0  0  0
  1  3  2  0  0  0  0
  2  4  2  0  0  0  0
  3  5  1  0  0  0  0
  4  6  1  0  0  0  0
  5  6  2  0  0  0  0
  6  9  1  0  0  0  0
  7  8  2  0  0  0  0
  7 10  1  0  0  0  0
  7 12  1  0  0  0  0
  8 11  1  0  0  0  0
  8 14  1  0  0  0  0
  9 12  2  0  0  0  0
  9 14  1  0  0  0  0
 11 13  1  0  0  0  0
  1 15  1  0  0  0  0
  2 16  1  0  0  0  0
  3 17  1  0  0  0  0
  4 18  1  0  0  0  0
  5 19  1  0  0  0  0
 10 20  1  0  0  0  0
 10 21  1  0  0  0  0
 10 22  1  0  0  0  0
 11 23  1  0  0  0  0
 11 24  1  0  0  0  0
 13 25  1  0  0  0  0
M  END
$$$$
frag.vs.434
  -OEChem-01121112263D

 18 19  0     0  0  0  0  0  0999 V2000
    0.6665   -5.1982   -5.9229 C   0  0  0  0  0  0  0  0  0  0  0  0
    1.3776   -0.1269   -1.6421 C   0  0  0  0  0  0  0  0  0  0  0  0
    0.2175   -0.4688   -0.9561 C   0  0  0  0  0  0  0  0  0  0  0  0
    1.6756   -0.7186   -2.8730 C   0  0  0  0  0  0  0  0  0  0  0  0
   -0.6742   -1.4085   -1.4795 C   0  0  0  0  0  0  0  0  0  0  0  0
    0.7916   -1.6713   -3.4245 C   0  0  0  0  0  0  0  0  0  0  0  0
   -0.3685   -1.9990   -2.7163 C   0  0  0  0  0  0  0  0  0  0  0  0
   -0.0585   -3.1484   -4.8253 C   0  0  0  0  0  0  0  0  0  0  0  0
   -0.2151   -4.0187   -6.0108 C   0  0  0  0  0  0  0  0  0  0  0  0
    1.3637   -6.1227   -5.8469 N   0  0  0  0  0  0  0  0  0  0  0  0
    0.9552   -2.3379   -4.6301 N   0  0  0  0  0  0  0  0  0  0  0  0
   -1.2595   -3.1758   -3.6075 S   0  0  0  0  0  0  0  0  0  0  0  0
    2.0592    0.6060   -1.2192 H   0  0  0  0  0  0  0  0  0  0  0  0
   -0.0001    0.0001    0.0000 H   0  0  0  0  0  0  0  0  0  0  0  0
    2.5843   -0.4432   -3.4008 H   0  0  0  0  0  0  0  0  0  0  0  0
   -1.5786   -1.6695   -0.9387 H   0  0  0  0  0  0  0  0  0  0  0  0
    0.0115   -3.4696   -6.9402 H   0  0  0  0  0  0  0  0  0  0  0  0
   -1.2588   -4.3579   -6.1209 H   0  0  0  0  0  0  0  0  0  0  0  0
  1  9  1  0  0  0  0
  1 10  3  0  0  0  0
  2  3  1  0  0  0  0
  2  4  2  0  0  0  0
  3  5  2  0  0  0  0
  4  6  1  0  0  0  0
  5  7  1  0  0  0  0
  6  7  2  0  0  0  0
  6 11  1  0  0  0  0
  7 12  1  0  0  0  0
  8  9  1  0  0  0  0
  8 11  2  0  0  0  0
  8 12  1  0  0  0  0
  2 13  1  0  0  0  0
  3 14  1  0  0  0  0
  4 15  1  0  0  0  0
  5 16  1  0  0  0  0
  9 17  1  0  0  0  0
  9 18  1  0  0  0  0
M  END
$$$$
frag.vs.435
  -OEChem-01121112263D

 19 20  0     0  0  0  0  0  0999 V2000
    1.3776   -0.1269   -1.6421 C   0  0  0  0  0  0  0  0  0  0  0  0
    0.2175   -0.4688   -0.9561 C   0  0  0  0  0  0  0  0  0  0  0  0
    1.6756   -0.7186   -2.8730 C   0  0  0  0  0  0  0  0  0  0  0  0
   -0.6742   -1.4085   -1.4795 C   0  0  0  0  0  0  0  0  0  0  0  0
    0.7916   -1.6713   -3.4245 C   0  0  0  0  0  0  0  0  0  0  0  0
   -0.3685   -1.9990   -2.7163 C   0  0  0  0  0  0  0  0  0  0  0  0
   -0.0585   -3.1484   -4.8253 C   0  0  0  0  0  0  0  0  0  0  0  0
   -0.2151   -4.0187   -6.0108 C   0  0  0  0  0  0  0  0  0  0  0  0
    0.9552   -2.3379   -4.6301 N   0  0  0  0  0  0  0  0  0  0  0  0
   -0.6222   -3.2897   -7.1910 N   0  0  0  0  0  0  0  0  0  0  0  0
   -1.2595   -3.1758   -3.6075 S   0  0  0  0  0  0  0  0  0  0  0  0
    2.0592    0.6060   -1.2192 H   0  0  0  0  0  0  0  0  0  0  0  0
   -0.0001    0.0001    0.0000 H   0  0  0  0  0  0  0  0  0  0  0  0
    2.5843   -0.4432   -3.4008 H   0  0  0  0  0  0  0  0  0  0  0  0
   -1.5786   -1.6695   -0.9387 H   0  0  0  0  0  0  0  0  0  0  0  0
    0.7252   -4.5381   -6.2633 H   0  0  0  0  0  0  0  0  0  0  0  0
   -0.9681   -4.8088   -5.8496 H   0  0  0  0  0  0  0  0  0  0  0  0
   -1.1319   -3.7745   -7.9072 H   0  0  0  0  0  0  0  0  0  0  0  0
   -0.2194   -2.3865   -7.3645 H   0  0  0  0  0  0  0  0  0  0  0  0
  1  2  1  0  0  0  0
  1  3  2  0  0  0  0
  2  4  2  0  0  0  0
  3  5  1  0  0  0  0
  4  6  1  0  0  0  0
  5  6  2  0  0  0  0
  5  9  1  0  0  0  0
  6 11  1  0  0  0  0
  7  8  1  0  0  0  0
  7  9  2  0  0  0  0
  7 11  1  0  0  0  0
  8 10  1  0  0  0  0
  1 12  1  0  0  0  0
  2 13  1  0  0  0  0
  3 14  1  0  0  0  0
  4 15  1  0  0  0  0
  8 16  1  0  0  0  0
  8 17  1  0  0  0  0
 10 18  1  0  0  0  0
 10 19  1  0  0  0  0
M  END
$$$$
frag.vs.436
  -OEChem-01121112263D

 18 19  0     0  0  0  0  0  0999 V2000
    1.3776   -0.1269   -1.6421 C   0  0  0  0  0  0  0  0  0  0  0  0
    0.2175   -0.4688   -0.9561 C   0  0  0  0  0  0  0  0  0  0  0  0
    1.6756   -0.7186   -2.8730 C   0  0  0  0  0  0  0  0  0  0  0  0
   -0.6742   -1.4085   -1.4795 C   0  0  0  0  0  0  0  0  0  0  0  0
    0.7916   -1.6713   -3.4245 C   0  0  0  0  0  0  0  0  0  0  0  0
   -0.3685   -1.9990   -2.7163 C   0  0  0  0  0  0  0  0  0  0  0  0
   -0.0585   -3.1484   -4.8253 C   0  0  0  0  0  0  0  0  0  0  0  0
   -0.2151   -4.0187   -6.0108 C   0  0  0  0  0  0  0  0  0  0  0  0
    0.9552   -2.3379   -4.6301 N   0  0  0  0  0  0  0  0  0  0  0  0
    0.0761   -5.3708   -5.6616 O   0  0  0  0  0  0  0  0  0  0  0  0
   -1.2595   -3.1758   -3.6075 S   0  0  0  0  0  0  0  0  0  0  0  0
    2.0592    0.6060   -1.2192 H   0  0  0  0  0  0  0  0  0  0  0  0
   -0.0001    0.0001    0.0000 H   0  0  0  0  0  0  0  0  0  0  0  0
    2.5843   -0.4432   -3.4008 H   0  0  0  0  0  0  0  0  0  0  0  0
   -1.5786   -1.6695   -0.9387 H   0  0  0  0  0  0  0  0  0  0  0  0
   -1.2402   -3.9834   -6.4169 H   0  0  0  0  0  0  0  0  0  0  0  0
    0.4620   -3.7210   -6.8292 H   0  0  0  0  0  0  0  0  0  0  0  0
   -0.0410   -5.8945   -6.4689 H   0  0  0  0  0  0  0  0  0  0  0  0
  1  2  1  0  0  0  0
  1  3  2  0  0  0  0
  2  4  2  0  0  0  0
  3  5  1  0  0  0  0
  4  6  1  0  0  0  0
  5  6  2  0  0  0  0
  5  9  1  0  0  0  0
  6 11  1  0  0  0  0
  7  8  1  0  0  0  0
  7  9  2  0  0  0  0
  7 11  1  0  0  0  0
  8 10  1  0  0  0  0
  1 12  1  0  0  0  0
  2 13  1  0  0  0  0
  3 14  1  0  0  0  0
  4 15  1  0  0  0  0
  8 16  1  0  0  0  0
  8 17  1  0  0  0  0
 10 18  1  0  0  0  0
M  END
$$$$
frag.vs.437
  -OEChem-01121112263D

 25 26  0     0  0  0  0  0  0999 V2000
    2.0689   -0.7519   -0.0604 C   0  0  0  0  0  0  0  0  0  0  0  0
    2.6945   -1.9364    1.9501 C   0  0  0  0  0  0  0  0  0  0  0  0
    0.9903   -0.1785    0.6130 C   0  0  0  0  0  0  0  0  0  0  0  0
    1.6159   -1.3630    2.6236 C   0  0  0  0  0  0  0  0  0  0  0  0
    4.6798   -1.5849   -1.1227 C   0  0  0  0  0  0  0  0  0  0  0  0
    2.9210   -1.6309    0.6081 C   0  0  0  0  0  0  0  0  0  0  0  0
    0.7638   -0.4841    1.9550 C   0  0  0  0  0  0  0  0  0  0  0  0
    4.0312   -2.2213   -0.0852 C   0  0  0  0  0  0  0  0  0  0  0  0
    5.5241   -3.7633   -0.5361 C   0  0  0  0  0  0  0  0  0  0  0  0
    7.2931   -5.0889    0.6796 C   0  0  0  0  0  0  0  0  0  0  0  0
    6.2975   -5.0222   -0.4737 C   0  0  0  0  0  0  0  0  0  0  0  0
    4.5138   -3.4707    0.2523 N   0  0  0  0  0  0  0  0  0  0  0  0
    8.0574   -6.2366    0.6709 N   0  0  0  0  0  0  0  0  0  0  0  0
    7.3987   -4.2090    1.5295 O   0  0  0  0  0  0  0  0  0  0  0  0
   -0.2720    0.0666    2.6016 F   0  0  0  0  0  0  0  0  0  0  0  0
    5.9481   -2.5813   -1.7058 S   0  0  0  0  0  0  0  0  0  0  0  0
    2.2315   -0.5040   -1.1067 H   0  0  0  0  0  0  0  0  0  0  0  0
    3.3498   -2.6194    2.4857 H   0  0  0  0  0  0  0  0  0  0  0  0
    0.3263    0.5052    0.0924 H   0  0  0  0  0  0  0  0  0  0  0  0
    1.4391   -1.6001    3.6685 H   0  0  0  0  0  0  0  0  0  0  0  0
    4.4835   -0.6147   -1.5580 H   0  0  0  0  0  0  0  0  0  0  0  0
    5.6264   -5.8974   -0.3809 H   0  0  0  0  0  0  0  0  0  0  0  0
    6.8616   -5.1869   -1.4116 H   0  0  0  0  0  0  0  0  0  0  0  0
    7.9170   -6.9256   -0.0611 H   0  0  0  0  0  0  0  0  0  0  0  0
    8.7581   -6.4023    1.3858 H   0  0  0  0  0  0  0  0  0  0  0  0
  1  3  1  0  0  0  0
  1  6  2  0  0  0  0
  2  4  2  0  0  0  0
  2  6  1  0  0  0  0
  3  7  2  0  0  0  0
  4  7  1  0  0  0  0
  5  8  2  0  0  0  0
  5 16  1  0  0  0  0
  6  8  1  0  0  0  0
  7 15  1  0  0  0  0
  8 12  1  0  0  0  0
  9 11  1  0  0  0  0
  9 12  2  0  0  0  0
  9 16  1  0  0  0  0
 10 11  1  0  0  0  0
 10 13  1  0  0  0  0
 10 14  2  0  0  0  0
  1 17  1  0  0  0  0
  2 18  1  0  0  0  0
  3 19  1  0  0  0  0
  4 20  1  0  0  0  0
  5 21  1  0  0  0  0
 11 22  1  0  0  0  0
 11 23  1  0  0  0  0
 13 24  1  0  0  0  0
 13 25  1  0  0  0  0
M  END
$$$$
frag.vs.438
  -OEChem-01121112263D

 21 22  0     0  0  0  0  0  0999 V2000
    1.8851   -1.0363   -0.1124 C   0  0  0  0  0  0  0  0  0  0  0  0
    2.8783   -1.6520    2.0022 C   0  0  0  0  0  0  0  0  0  0  0  0
    0.8066   -0.4630    0.5610 C   0  0  0  0  0  0  0  0  0  0  0  0
    1.7997   -1.0786    2.6757 C   0  0  0  0  0  0  0  0  0  0  0  0
    4.4720   -1.7618   -1.3079 C   0  0  0  0  0  0  0  0  0  0  0  0
    2.9210   -1.6309    0.6081 C   0  0  0  0  0  0  0  0  0  0  0  0
    0.7638   -0.4841    1.9551 C   0  0  0  0  0  0  0  0  0  0  0  0
    4.0314   -2.2217   -0.0846 C   0  0  0  0  0  0  0  0  0  0  0  0
    5.6872   -3.6274   -0.3884 C   0  0  0  0  0  0  0  0  0  0  0  0
    4.7267   -3.2917    0.4440 N   0  0  0  0  0  0  0  0  0  0  0  0
    6.5635   -4.6450   -0.1762 N   0  0  0  0  0  0  0  0  0  0  0  0
   -0.2884    0.0754    2.6126 O   0  0  0  0  0  0  0  0  0  0  0  0
    5.8121   -2.6984   -1.8259 S   0  0  0  0  0  0  0  0  0  0  0  0
    1.9040   -1.0117   -1.1995 H   0  0  0  0  0  0  0  0  0  0  0  0
    3.6777   -2.1120    2.5783 H   0  0  0  0  0  0  0  0  0  0  0  0
    0.0024   -0.0011   -0.0053 H   0  0  0  0  0  0  0  0  0  0  0  0
    1.7722   -1.0992    3.7618 H   0  0  0  0  0  0  0  0  0  0  0  0
    4.0924   -0.9463   -1.9082 H   0  0  0  0  0  0  0  0  0  0  0  0
    6.5525   -5.1934    0.6905 H   0  0  0  0  0  0  0  0  0  0  0  0
    7.3280   -4.8426   -0.8308 H   0  0  0  0  0  0  0  0  0  0  0  0
   -0.9228    0.4458    1.9784 H   0  0  0  0  0  0  0  0  0  0  0  0
  1  3  1  0  0  0  0
  1  6  2  0  0  0  0
  2  4  2  0  0  0  0
  2  6  1  0  0  0  0
  3  7  2  0  0  0  0
  4  7  1  0  0  0  0
  5  8  2  0  0  0  0
  5 13  1  0  0  0  0
  6  8  1  0  0  0  0
  7 12  1  0  0  0  0
  8 10  1  0  0  0  0
  9 10  2  0  0  0  0
  9 11  1  0  0  0  0
  9 13  1  0  0  0  0
  1 14  1  0  0  0  0
  2 15  1  0  0  0  0
  3 16  1  0  0  0  0
  4 17  1  0  0  0  0
  5 18  1  0  0  0  0
 11 19  1  0  0  0  0
 11 20  1  0  0  0  0
 12 21  1  0  0  0  0
M  END
$$$$
frag.vs.439
  -OEChem-01121112263D

 23 24  0     0  0  0  0  0  0999 V2000
    1.8845   -1.0348   -0.1124 C   0  0  0  0  0  0  0  0  0  0  0  0
    1.7184    0.1534    0.5990 C   0  0  0  0  0  0  0  0  0  0  0  0
    2.0082   -2.2449    0.5702 C   0  0  0  0  0  0  0  0  0  0  0  0
    1.6760    0.1315    1.9931 C   0  0  0  0  0  0  0  0  0  0  0  0
    1.9658   -2.2669    1.9642 C   0  0  0  0  0  0  0  0  0  0  0  0
    1.8350   -0.4900    6.4457 C   0  0  0  0  0  0  0  0  0  0  0  0
    1.7997   -1.0786    2.6757 C   0  0  0  0  0  0  0  0  0  0  0  0
    1.5345   -1.8098    6.1809 C   0  0  0  0  0  0  0  0  0  0  0  0
    1.7549   -1.1012    4.1171 C   0  0  0  0  0  0  0  0  0  0  0  0
    1.2644   -2.8512    7.1917 C   0  0  0  0  0  0  0  0  0  0  0  0
    1.4878   -2.1620    4.8461 N   0  0  0  0  0  0  0  0  0  0  0  0
   -0.1403   -3.1805    7.2992 N   0  0  0  0  0  0  0  0  0  0  0  0
    2.0724    0.3530    4.9711 S   0  0  0  0  0  0  0  0  0  0  0  0
    1.9169   -1.0177   -1.1979 H   0  0  0  0  0  0  0  0  0  0  0  0
    1.6223    1.0956    0.0673 H   0  0  0  0  0  0  0  0  0  0  0  0
    2.1365   -3.1703    0.0161 H   0  0  0  0  0  0  0  0  0  0  0  0
    1.5432    1.0659    2.5331 H   0  0  0  0  0  0  0  0  0  0  0  0
    2.0648   -3.2181    2.4816 H   0  0  0  0  0  0  0  0  0  0  0  0
    1.9252    0.0061    7.4014 H   0  0  0  0  0  0  0  0  0  0  0  0
    1.7957   -3.7926    6.9644 H   0  0  0  0  0  0  0  0  0  0  0  0
    1.5966   -2.5504    8.2010 H   0  0  0  0  0  0  0  0  0  0  0  0
   -0.4868   -3.5385    8.1702 H   0  0  0  0  0  0  0  0  0  0  0  0
   -0.6878   -3.2390    6.4603 H   0  0  0  0  0  0  0  0  0  0  0  0
  1  2  1  0  0  0  0
  1  3  2  0  0  0  0
  2  4  2  0  0  0  0
  3  5  1  0  0  0  0
  4  7  1  0  0  0  0
  5  7  2  0  0  0  0
  6  8  2  0  0  0  0
  6 13  1  0  0  0  0
  7  9  1  0  0  0  0
  8 10  1  0  0  0  0
  8 11  1  0  0  0  0
  9 11  2  0  0  0  0
  9 13  1  0  0  0  0
 10 12  1  0  0  0  0
  1 14  1  0  0  0  0
  2 15  1  0  0  0  0
  3 16  1  0  0  0  0
  4 17  1  0  0  0  0
  5 18  1  0  0  0  0
  6 19  1  0  0  0  0
 10 20  1  0  0  0  0
 10 21  1  0  0  0  0
 12 22  1  0  0  0  0
 12 23  1  0  0  0  0
M  END
$$$$
frag.vs.440
  -OEChem-01121112263D

 22 23  0     0  0  0  0  0  0999 V2000
    1.8851   -1.0363   -0.1124 C   0  0  0  0  0  0  0  0  0  0  0  0
    0.8066   -0.4630    0.5610 C   0  0  0  0  0  0  0  0  0  0  0  0
    2.9210   -1.6309    0.6081 C   0  0  0  0  0  0  0  0  0  0  0  0
    0.7638   -0.4841    1.9551 C   0  0  0  0  0  0  0  0  0  0  0  0
    2.8783   -1.6520    2.0022 C   0  0  0  0  0  0  0  0  0  0  0  0
    1.2467   -0.6354    6.4251 C   0  0  0  0  0  0  0  0  0  0  0  0
    1.7997   -1.0786    2.6757 C   0  0  0  0  0  0  0  0  0  0  0  0
    2.1475   -1.6557    6.2023 C   0  0  0  0  0  0  0  0  0  0  0  0
    1.7549   -1.1012    4.1171 C   0  0  0  0  0  0  0  0  0  0  0  0
    2.8078   -2.4648    7.2457 C   0  0  0  0  0  0  0  0  0  0  0  0
    2.4398   -1.9245    4.8794 N   0  0  0  0  0  0  0  0  0  0  0  0
    2.2162   -3.7627    7.3034 O   0  0  0  0  0  0  0  0  0  0  0  0
    0.7400    0.0225    4.9246 S   0  0  0  0  0  0  0  0  0  0  0  0
    1.9181   -1.0204   -1.1979 H   0  0  0  0  0  0  0  0  0  0  0  0
    0.0002    0.0001   -0.0003 H   0  0  0  0  0  0  0  0  0  0  0  0
    3.7604   -2.0783    0.0837 H   0  0  0  0  0  0  0  0  0  0  0  0
   -0.0851   -0.0353    2.4653 H   0  0  0  0  0  0  0  0  0  0  0  0
    3.6940   -2.1183    2.5495 H   0  0  0  0  0  0  0  0  0  0  0  0
    0.8729   -0.2542    7.3647 H   0  0  0  0  0  0  0  0  0  0  0  0
    3.8877   -2.5915    7.0527 H   0  0  0  0  0  0  0  0  0  0  0  0
    2.7172   -2.0026    8.2444 H   0  0  0  0  0  0  0  0  0  0  0  0
    2.6851   -4.2467    7.9998 H   0  0  0  0  0  0  0  0  0  0  0  0
  1  2  1  0  0  0  0
  1  3  2  0  0  0  0
  2  4  2  0  0  0  0
  3  5  1  0  0  0  0
  4  7  1  0  0  0  0
  5  7  2  0  0  0  0
  6  8  2  0  0  0  0
  6 13  1  0  0  0  0
  7  9  1  0  0  0  0
  8 10  1  0  0  0  0
  8 11  1  0  0  0  0
  9 11  2  0  0  0  0
  9 13  1  0  0  0  0
 10 12  1  0  0  0  0
  1 14  1  0  0  0  0
  2 15  1  0  0  0  0
  3 16  1  0  0  0  0
  4 17  1  0  0  0  0
  5 18  1  0  0  0  0
  6 19  1  0  0  0  0
 10 20  1  0  0  0  0
 10 21  1  0  0  0  0
 12 22  1  0  0  0  0
M  END
$$$$
frag.vs.441
  -OEChem-01121112263D

 34 36  0     0  0  0  0  0  0999 V2000
    1.8331    1.5731    8.0546 C   0  0  0  0  0  0  0  0  0  0  0  0
    2.7127    0.5275    7.7744 C   0  0  0  0  0  0  0  0  0  0  0  0
    1.0014    2.0725    7.0523 C   0  0  0  0  0  0  0  0  0  0  0  0
    2.7608   -0.0187    6.4918 C   0  0  0  0  0  0  0  0  0  0  0  0
    1.0495    1.5264    5.7697 C   0  0  0  0  0  0  0  0  0  0  0  0
    1.9292    0.4808    5.4894 C   0  0  0  0  0  0  0  0  0  0  0  0
    1.9788   -0.0827    4.1653 C   0  0  0  0  0  0  0  0  0  0  0  0
    1.1846   -0.4935    2.1814 C   0  0  0  0  0  0  0  0  0  0  0  0
   -0.8740    1.4330    0.2877 C   0  0  0  0  0  0  0  0  0  0  0  0
   -0.8679    1.2796   -1.2346 C   0  0  0  0  0  0  0  0  0  0  0  0
   -0.9452    0.1057    1.0399 C   0  0  0  0  0  0  0  0  0  0  0  0
    0.1019   -0.9426   -1.4329 C   0  0  0  0  0  0  0  0  0  0  0  0
    0.8002   -1.3135   -0.1227 C   0  0  0  0  0  0  0  0  0  0  0  0
    0.9028    0.1095    3.3154 N   0  0  0  0  0  0  0  0  0  0  0  0
    3.0460   -0.7761    3.7692 N   0  0  0  0  0  0  0  0  0  0  0  0
    0.2354    0.4770   -1.7676 N   0  0  0  0  0  0  0  0  0  0  0  0
    0.3650   -0.5455    1.0488 N   0  0  0  0  0  0  0  0  0  0  0  0
    2.7224   -1.2547    2.1985 S   0  0  0  0  0  0  0  0  0  0  0  0
    1.7947    1.9977    9.0535 H   0  0  0  0  0  0  0  0  0  0  0  0
    3.3593    0.1376    8.5550 H   0  0  0  0  0  0  0  0  0  0  0  0
    0.3157    2.8858    7.2710 H   0  0  0  0  0  0  0  0  0  0  0  0
    3.4520   -0.8335    6.2890 H   0  0  0  0  0  0  0  0  0  0  0  0
    0.3947    1.9269    4.9993 H   0  0  0  0  0  0  0  0  0  0  0  0
    0.0097    2.0012    0.6048 H   0  0  0  0  0  0  0  0  0  0  0  0
   -1.7496    2.0353    0.5596 H   0  0  0  0  0  0  0  0  0  0  0  0
   -1.8301    0.8778   -1.5772 H   0  0  0  0  0  0  0  0  0  0  0  0
   -0.7888    2.2832   -1.6693 H   0  0  0  0  0  0  0  0  0  0  0  0
   -1.2590    0.3152    2.0715 H   0  0  0  0  0  0  0  0  0  0  0  0
   -1.7138   -0.5562    0.6237 H   0  0  0  0  0  0  0  0  0  0  0  0
    0.5892   -1.5191   -2.2295 H   0  0  0  0  0  0  0  0  0  0  0  0
   -0.9457   -1.2666   -1.4395 H   0  0  0  0  0  0  0  0  0  0  0  0
    0.6325   -2.3807    0.0706 H   0  0  0  0  0  0  0  0  0  0  0  0
    1.8828   -1.1817   -0.2526 H   0  0  0  0  0  0  0  0  0  0  0  0
    0.2177    0.5669   -2.7844 H   0  0  0  0  0  0  0  0  0  0  0  0
  1  2  1  0  0  0  0
  1  3  2  0  0  0  0
  2  4  2  0  0  0  0
  3  5  1  0  0  0  0
  4  6  1  0  0  0  0
  5  6  2  0  0  0  0
  6  7  1  0  0  0  0
  7 14  1  0  0  0  0
  7 15  2  0  0  0  0
  8 14  2  0  0  0  0
  8 17  1  0  0  0  0
  8 18  1  0  0  0  0
  9 10  1  0  0  0  0
  9 11  1  0  0  0  0
 10 16  1  0  0  0  0
 11 17  1  0  0  0  0
 12 13  1  0  0  0  0
 12 16  1  0  0  0  0
 13 17  1  0  0  0  0
 15 18  1  0  0  0  0
  1 19  1  0  0  0  0
  2 20  1  0  0  0  0
  3 21  1  0  0  0  0
  4 22  1  0  0  0  0
  5 23  1  0  0  0  0
  9 24  1  0  0  0  0
  9 25  1  0  0  0  0
 10 26  1  0  0  0  0
 10 27  1  0  0  0  0
 11 28  1  0  0  0  0
 11 29  1  0  0  0  0
 12 30  1  0  0  0  0
 12 31  1  0  0  0  0
 13 32  1  0  0  0  0
 13 33  1  0  0  0  0
 16 34  1  0  0  0  0
M  END
$$$$
frag.vs.442
  -OEChem-01121112263D

 31 33  0     0  0  0  0  0  0999 V2000
    8.0293   -2.4369    6.8080 C   0  0  0  0  0  0  0  0  0  0  0  0
    8.1886   -1.1356    6.3317 C   0  0  0  0  0  0  0  0  0  0  0  0
    7.0282   -3.2542    6.2830 C   0  0  0  0  0  0  0  0  0  0  0  0
    7.3467   -0.6515    5.3304 C   0  0  0  0  0  0  0  0  0  0  0  0
    6.1863   -2.7701    5.2818 C   0  0  0  0  0  0  0  0  0  0  0  0
    6.3455   -1.4687    4.8055 C   0  0  0  0  0  0  0  0  0  0  0  0
    5.4761   -0.9692    3.7720 C   0  0  0  0  0  0  0  0  0  0  0  0
    3.6591   -0.9653    2.5746 C   0  0  0  0  0  0  0  0  0  0  0  0
    0.6226   -2.9263    1.6248 C   0  0  0  0  0  0  0  0  0  0  0  0
    0.5297   -0.8040    0.5147 C   0  0  0  0  0  0  0  0  0  0  0  0
    1.6715   -2.4143    2.6113 C   0  0  0  0  0  0  0  0  0  0  0  0
    1.5765   -0.2136    1.4592 C   0  0  0  0  0  0  0  0  0  0  0  0
    4.2614   -1.5981    3.5574 N   0  0  0  0  0  0  0  0  0  0  0  0
    5.8394    0.0822    3.0378 N   0  0  0  0  0  0  0  0  0  0  0  0
   -0.2548   -1.8480    1.1718 N   0  0  0  0  0  0  0  0  0  0  0  0
    2.4044   -1.2770    2.0387 N   0  0  0  0  0  0  0  0  0  0  0  0
    4.5821    0.3469    1.9656 S   0  0  0  0  0  0  0  0  0  0  0  0
    8.6854   -2.8144    7.5868 H   0  0  0  0  0  0  0  0  0  0  0  0
    8.9687   -0.4996    6.7394 H   0  0  0  0  0  0  0  0  0  0  0  0
    6.9052   -4.2677    6.6532 H   0  0  0  0  0  0  0  0  0  0  0  0
    7.4835    0.3653    4.9696 H   0  0  0  0  0  0  0  0  0  0  0  0
    5.4106   -3.4197    4.8829 H   0  0  0  0  0  0  0  0  0  0  0  0
    1.1120   -3.3973    0.7631 H   0  0  0  0  0  0  0  0  0  0  0  0
    0.0177   -3.6992    2.1116 H   0  0  0  0  0  0  0  0  0  0  0  0
   -0.1432   -0.0067    0.1808 H   0  0  0  0  0  0  0  0  0  0  0  0
    1.0145   -1.2106   -0.3817 H   0  0  0  0  0  0  0  0  0  0  0  0
    1.1897   -2.1034    3.5474 H   0  0  0  0  0  0  0  0  0  0  0  0
    2.3624   -3.2322    2.8512 H   0  0  0  0  0  0  0  0  0  0  0  0
    2.2000    0.4946    0.8994 H   0  0  0  0  0  0  0  0  0  0  0  0
    1.0840    0.3456    2.2654 H   0  0  0  0  0  0  0  0  0  0  0  0
   -0.9336   -2.2238    0.5101 H   0  0  0  0  0  0  0  0  0  0  0  0
  1  2  1  0  0  0  0
  1  3  2  0  0  0  0
  2  4  2  0  0  0  0
  3  5  1  0  0  0  0
  4  6  1  0  0  0  0
  5  6  2  0  0  0  0
  6  7  1  0  0  0  0
  7 13  1  0  0  0  0
  7 14  2  0  0  0  0
  8 13  2  0  0  0  0
  8 16  1  0  0  0  0
  8 17  1  0  0  0  0
  9 11  1  0  0  0  0
  9 15  1  0  0  0  0
 10 12  1  0  0  0  0
 10 15  1  0  0  0  0
 11 16  1  0  0  0  0
 12 16  1  0  0  0  0
 14 17  1  0  0  0  0
  1 18  1  0  0  0  0
  2 19  1  0  0  0  0
  3 20  1  0  0  0  0
  4 21  1  0  0  0  0
  5 22  1  0  0  0  0
  9 23  1  0  0  0  0
  9 24  1  0  0  0  0
 10 25  1  0  0  0  0
 10 26  1  0  0  0  0
 11 27  1  0  0  0  0
 11 28  1  0  0  0  0
 12 29  1  0  0  0  0
 12 30  1  0  0  0  0
 15 31  1  0  0  0  0
M  END
$$$$
frag.vs.443
  -OEChem-01121112263D

 22 23  0     0  0  0  0  0  0999 V2000
   -2.7151    4.3237   -1.3301 C   0  0  0  0  0  0  0  0  0  0  0  0
   -1.9323    0.8440   -0.4461 C   0  0  0  0  0  0  0  0  0  0  0  0
   -0.5469    0.8976   -0.2738 C   0  0  0  0  0  0  0  0  0  0  0  0
   -4.0902    4.2376   -1.4936 C   0  0  0  0  0  0  0  0  0  0  0  0
   -0.5812    3.2417   -0.8037 C   0  0  0  0  0  0  0  0  0  0  0  0
   -1.9747    3.1875   -0.9770 C   0  0  0  0  0  0  0  0  0  0  0  0
   -2.6683    1.9725   -0.7968 C   0  0  0  0  0  0  0  0  0  0  0  0
    0.1298    2.0977   -0.4527 C   0  0  0  0  0  0  0  0  0  0  0  0
   -4.6804    3.0058   -1.2959 C   0  0  0  0  0  0  0  0  0  0  0  0
   -6.1569    2.8664   -1.4610 C   0  0  0  0  0  0  0  0  0  0  0  0
   -4.0027    1.8858   -0.9548 N   0  0  0  0  0  0  0  0  0  0  0  0
    1.5272    2.1565   -0.2801 N   0  0  0  0  0  0  0  0  0  0  0  0
   -2.2240    5.2826   -1.4797 H   0  0  0  0  0  0  0  0  0  0  0  0
   -2.4390   -0.1083   -0.3001 H   0  0  0  0  0  0  0  0  0  0  0  0
   -0.0095   -0.0067    0.0003 H   0  0  0  0  0  0  0  0  0  0  0  0
   -4.6697    5.1124   -1.7668 H   0  0  0  0  0  0  0  0  0  0  0  0
   -0.0513    4.1823   -0.9441 H   0  0  0  0  0  0  0  0  0  0  0  0
   -6.4017    2.6078   -2.4981 H   0  0  0  0  0  0  0  0  0  0  0  0
   -6.5586    2.0855   -0.8028 H   0  0  0  0  0  0  0  0  0  0  0  0
   -6.6756    3.7985   -1.2023 H   0  0  0  0  0  0  0  0  0  0  0  0
    2.0180    1.3373    0.0181 H   0  0  0  0  0  0  0  0  0  0  0  0
    1.9937    3.0375   -0.3662 H   0  0  0  0  0  0  0  0  0  0  0  0
  1  4  2  0  0  0  0
  1  6  1  0  0  0  0
  2  3  2  0  0  0  0
  2  7  1  0  0  0  0
  3  8  1  0  0  0  0
  4  9  1  0  0  0  0
  5  6  1  0  0  0  0
  5  8  2  0  0  0  0
  6  7  2  0  0  0  0
  7 11  1  0  0  0  0
  8 12  1  0  0  0  0
  9 10  1  0  0  0  0
  9 11  2  0  0  0  0
  1 13  1  0  0  0  0
  2 14  1  0  0  0  0
  3 15  1  0  0  0  0
  4 16  1  0  0  0  0
  5 17  1  0  0  0  0
 10 18  1  0  0  0  0
 10 19  1  0  0  0  0
 10 20  1  0  0  0  0
 12 21  1  0  0  0  0
 12 22  1  0  0  0  0
M  END
$$$$
frag.vs.444
  -OEChem-01121112263D

 21 22  0     0  0  0  0  0  0999 V2000
    0.1298    2.0977   -0.4527 C   0  0  0  0  0  0  0  0  0  0  0  0
   -0.5469    0.8976   -0.2738 C   0  0  0  0  0  0  0  0  0  0  0  0
   -0.5812    3.2417   -0.8037 C   0  0  0  0  0  0  0  0  0  0  0  0
   -2.7151    4.3237   -1.3301 C   0  0  0  0  0  0  0  0  0  0  0  0
   -1.9323    0.8440   -0.4461 C   0  0  0  0  0  0  0  0  0  0  0  0
   -4.0902    4.2376   -1.4936 C   0  0  0  0  0  0  0  0  0  0  0  0
   -1.9747    3.1875   -0.9770 C   0  0  0  0  0  0  0  0  0  0  0  0
   -2.6683    1.9725   -0.7968 C   0  0  0  0  0  0  0  0  0  0  0  0
   -4.6804    3.0058   -1.2959 C   0  0  0  0  0  0  0  0  0  0  0  0
   -6.1569    2.8665   -1.4611 C   0  0  0  0  0  0  0  0  0  0  0  0
   -4.0027    1.8858   -0.9548 N   0  0  0  0  0  0  0  0  0  0  0  0
   -6.8132    3.4388   -0.3368 O   0  0  0  0  0  0  0  0  0  0  0  0
    1.2063    2.1433   -0.3196 H   0  0  0  0  0  0  0  0  0  0  0  0
    0.0003    0.0001   -0.0003 H   0  0  0  0  0  0  0  0  0  0  0  0
   -0.0420    4.1764   -0.9410 H   0  0  0  0  0  0  0  0  0  0  0  0
   -2.2238    5.2824   -1.4800 H   0  0  0  0  0  0  0  0  0  0  0  0
   -2.4387   -0.1085   -0.3005 H   0  0  0  0  0  0  0  0  0  0  0  0
   -4.6697    5.1124   -1.7673 H   0  0  0  0  0  0  0  0  0  0  0  0
   -6.5076    3.3751   -2.3692 H   0  0  0  0  0  0  0  0  0  0  0  0
   -6.4485    1.8107   -1.5411 H   0  0  0  0  0  0  0  0  0  0  0  0
   -7.7663    3.3277   -0.4832 H   0  0  0  0  0  0  0  0  0  0  0  0
  1  2  1  0  0  0  0
  1  3  2  0  0  0  0
  2  5  2  0  0  0  0
  3  7  1  0  0  0  0
  4  6  1  0  0  0  0
  4  7  2  0  0  0  0
  5  8  1  0  0  0  0
  6  9  2  0  0  0  0
  7  8  1  0  0  0  0
  8 11  2  0  0  0  0
  9 10  1  0  0  0  0
  9 11  1  0  0  0  0
 10 12  1  0  0  0  0
  1 13  1  0  0  0  0
  2 14  1  0  0  0  0
  3 15  1  0  0  0  0
  4 16  1  0  0  0  0
  5 17  1  0  0  0  0
  6 18  1  0  0  0  0
 10 19  1  0  0  0  0
 10 20  1  0  0  0  0
 12 21  1  0  0  0  0
M  END
$$$$
frag.vs.445
  -OEChem-01121112263D

 25 26  0     0  0  0  0  0  0999 V2000
    1.9338   -0.9390   -0.0015 C   0  0  0  0  0  0  0  0  0  0  0  0
    3.0723   -1.2223    0.7509 C   0  0  0  0  0  0  0  0  0  0  0  0
    0.9988    0.1958    1.8989 C   0  0  0  0  0  0  0  0  0  0  0  0
    0.8925   -0.2271    0.5751 C   0  0  0  0  0  0  0  0  0  0  0  0
    3.1886   -0.8044    2.0745 C   0  0  0  0  0  0  0  0  0  0  0  0
    2.1323   -0.0820    2.6593 C   0  0  0  0  0  0  0  0  0  0  0  0
    4.3566   -0.6622    4.0538 C   0  0  0  0  0  0  0  0  0  0  0  0
    3.3285    0.0410    4.6230 C   0  0  0  0  0  0  0  0  0  0  0  0
   -0.3037    0.0740   -0.1947 C   0  0  0  0  0  0  0  0  0  0  0  0
    5.5941   -0.9934    4.8142 C   0  0  0  0  0  0  0  0  0  0  0  0
    3.3916    0.5158    6.0337 C   0  0  0  0  0  0  0  0  0  0  0  0
    4.2972   -1.0899    2.7798 N   0  0  0  0  0  0  0  0  0  0  0  0
    2.2113    0.3367    3.9346 N   0  0  0  0  0  0  0  0  0  0  0  0
   -1.2850    0.6990    0.2215 O   0  0  0  0  0  0  0  0  0  0  0  0
   -0.2421   -0.4125   -1.4647 O   0  0  0  0  0  0  0  0  0  0  0  0
    1.8747   -1.2795   -1.0316 H   0  0  0  0  0  0  0  0  0  0  0  0
    3.8821   -1.7809    0.2857 H   0  0  0  0  0  0  0  0  0  0  0  0
    0.1791    0.7539    2.3497 H   0  0  0  0  0  0  0  0  0  0  0  0
    5.4843   -1.9591    5.3238 H   0  0  0  0  0  0  0  0  0  0  0  0
    6.4682   -1.0488    4.1514 H   0  0  0  0  0  0  0  0  0  0  0  0
    5.8173   -0.2268    5.5685 H   0  0  0  0  0  0  0  0  0  0  0  0
    3.8354    1.5184    6.0814 H   0  0  0  0  0  0  0  0  0  0  0  0
    2.3920    0.5573    6.4869 H   0  0  0  0  0  0  0  0  0  0  0  0
    3.9934   -0.1597    6.6565 H   0  0  0  0  0  0  0  0  0  0  0  0
   -1.0445   -0.2137   -1.9928 H   0  0  0  0  0  0  0  0  0  0  0  0
  1  2  2  0  0  0  0
  1  4  1  0  0  0  0
  2  5  1  0  0  0  0
  3  4  2  0  0  0  0
  3  6  1  0  0  0  0
  4  9  1  0  0  0  0
  5  6  2  0  0  0  0
  5 12  1  0  0  0  0
  6 13  1  0  0  0  0
  7  8  1  0  0  0  0
  7 10  1  0  0  0  0
  7 12  2  0  0  0  0
  8 11  1  0  0  0  0
  8 13  2  0  0  0  0
  9 14  2  0  0  0  0
  9 15  1  0  0  0  0
  1 16  1  0  0  0  0
  2 17  1  0  0  0  0
  3 18  1  0  0  0  0
 10 19  1  0  0  0  0
 10 20  1  0  0  0  0
 10 21  1  0  0  0  0
 11 22  1  0  0  0  0
 11 23  1  0  0  0  0
 11 24  1  0  0  0  0
 15 25  1  0  0  0  0
M  END
$$$$
frag.vs.446
  -OEChem-01121112263D

 21 22  0     0  0  0  0  0  0999 V2000
    0.6383   -0.3105    0.8235 C   0  0  0  0  0  0  0  0  0  0  0  0
    0.0716   -0.5343    2.0827 C   0  0  0  0  0  0  0  0  0  0  0  0
    2.8602   -0.8780    1.6415 C   0  0  0  0  0  0  0  0  0  0  0  0
    1.9446   -1.5634    4.9672 C   0  0  0  0  0  0  0  0  0  0  0  0
    2.0075   -0.4788    0.6046 C   0  0  0  0  0  0  0  0  0  0  0  0
    2.3079   -1.1070    2.9131 C   0  0  0  0  0  0  0  0  0  0  0  0
    0.9398   -0.9311    3.1003 C   0  0  0  0  0  0  0  0  0  0  0  0
    2.5583   -0.2352   -0.7199 C   0  0  0  0  0  0  0  0  0  0  0  0
    4.5065    0.4787   -1.8965 C   0  0  0  0  0  0  0  0  0  0  0  0
    2.9153   -1.4999    4.0836 N   0  0  0  0  0  0  0  0  0  0  0  0
    0.7355   -1.2298    4.4230 N   0  0  0  0  0  0  0  0  0  0  0  0
    1.9365   -0.4007   -1.7774 O   0  0  0  0  0  0  0  0  0  0  0  0
    3.8527    0.2022   -0.6532 O   0  0  0  0  0  0  0  0  0  0  0  0
   -0.0110    0.0001    0.0074 H   0  0  0  0  0  0  0  0  0  0  0  0
   -0.9908   -0.4040    2.2547 H   0  0  0  0  0  0  0  0  0  0  0  0
    3.9251   -1.0092    1.4734 H   0  0  0  0  0  0  0  0  0  0  0  0
    2.0480   -1.8407    6.0062 H   0  0  0  0  0  0  0  0  0  0  0  0
    5.5275    0.8176   -1.7046 H   0  0  0  0  0  0  0  0  0  0  0  0
    3.9512    1.2488   -2.4378 H   0  0  0  0  0  0  0  0  0  0  0  0
    4.5348   -0.4354   -2.4943 H   0  0  0  0  0  0  0  0  0  0  0  0
   -0.1512   -1.2089    4.9088 H   0  0  0  0  0  0  0  0  0  0  0  0
  1  2  2  0  0  0  0
  1  5  1  0  0  0  0
  2  7  1  0  0  0  0
  3  5  2  0  0  0  0
  3  6  1  0  0  0  0
  4 10  2  0  0  0  0
  4 11  1  0  0  0  0
  5  8  1  0  0  0  0
  6  7  2  0  0  0  0
  6 10  1  0  0  0  0
  7 11  1  0  0  0  0
  8 12  2  0  0  0  0
  8 13  1  0  0  0  0
  9 13  1  0  0  0  0
  1 14  1  0  0  0  0
  2 15  1  0  0  0  0
  3 16  1  0  0  0  0
  4 17  1  0  0  0  0
  9 18  1  0  0  0  0
  9 19  1  0  0  0  0
  9 20  1  0  0  0  0
 11 21  1  0  0  0  0
M  END
$$$$
frag.vs.447
  -OEChem-01121112263D

 29 30  0     0  0  0  0  0  0999 V2000
    0.7094   -5.1030    3.3823 C   0  0  0  0  0  0  0  0  0  0  0  0
   -1.5267   -5.0937    4.2970 C   0  0  0  0  0  0  0  0  0  0  0  0
    0.7780   -3.7183    3.5359 C   0  0  0  0  0  0  0  0  0  0  0  0
   -1.4581   -3.7090    4.4507 C   0  0  0  0  0  0  0  0  0  0  0  0
    0.1895   -7.8514    2.5795 C   0  0  0  0  0  0  0  0  0  0  0  0
   -1.2856   -7.9882    4.4742 C   0  0  0  0  0  0  0  0  0  0  0  0
    0.0894   -9.2290    2.4703 C   0  0  0  0  0  0  0  0  0  0  0  0
   -1.3198   -9.3597    4.2800 C   0  0  0  0  0  0  0  0  0  0  0  0
   -0.4430   -5.7907    3.7628 C   0  0  0  0  0  0  0  0  0  0  0  0
   -0.5142   -7.2268    3.6032 C   0  0  0  0  0  0  0  0  0  0  0  0
   -0.3057   -3.0213    4.0701 C   0  0  0  0  0  0  0  0  0  0  0  0
   -0.9241    0.6083    3.4194 C   0  0  0  0  0  0  0  0  0  0  0  0
   -0.2325   -1.5408    4.2341 C   0  0  0  0  0  0  0  0  0  0  0  0
   -0.6498  -10.0020    3.2971 N   0  0  0  0  0  0  0  0  0  0  0  0
   -0.9999   -0.8404    3.2358 N   0  0  0  0  0  0  0  0  0  0  0  0
    1.5623   -5.6320    2.9637 H   0  0  0  0  0  0  0  0  0  0  0  0
   -2.4317   -5.6156    4.5989 H   0  0  0  0  0  0  0  0  0  0  0  0
    1.6794   -3.1906    3.2357 H   0  0  0  0  0  0  0  0  0  0  0  0
   -2.3070   -3.1740    4.8683 H   0  0  0  0  0  0  0  0  0  0  0  0
    0.8029   -7.2912    1.8810 H   0  0  0  0  0  0  0  0  0  0  0  0
   -1.8486   -7.5357    5.2841 H   0  0  0  0  0  0  0  0  0  0  0  0
    0.6205   -9.7641    1.6897 H   0  0  0  0  0  0  0  0  0  0  0  0
   -1.9074   -9.9980    4.9315 H   0  0  0  0  0  0  0  0  0  0  0  0
   -1.2922    0.8810    4.4119 H   0  0  0  0  0  0  0  0  0  0  0  0
   -1.5322    1.1171    2.6665 H   0  0  0  0  0  0  0  0  0  0  0  0
    0.1106    0.9480    3.3223 H   0  0  0  0  0  0  0  0  0  0  0  0
   -0.6117   -1.2321    5.2184 H   0  0  0  0  0  0  0  0  0  0  0  0
    0.8025   -1.1784    4.1653 H   0  0  0  0  0  0  0  0  0  0  0  0
   -0.6497   -1.0680    2.2999 H   0  0  0  0  0  0  0  0  0  0  0  0
  1  3  2  0  0  0  0
  1  9  1  0  0  0  0
  2  4  1  0  0  0  0
  2  9  2  0  0  0  0
  3 11  1  0  0  0  0
  4 11  2  0  0  0  0
  5  7  2  0  0  0  0
  5 10  1  0  0  0  0
  6  8  1  0  0  0  0
  6 10  2  0  0  0  0
  7 14  1  0  0  0  0
  8 14  2  0  0  0  0
  9 10  1  0  0  0  0
 11 13  1  0  0  0  0
 12 15  1  0  0  0  0
 13 15  1  0  0  0  0
  1 16  1  0  0  0  0
  2 17  1  0  0  0  0
  3 18  1  0  0  0  0
  4 19  1  0  0  0  0
  5 20  1  0  0  0  0
  6 21  1  0  0  0  0
  7 22  1  0  0  0  0
  8 23  1  0  0  0  0
 12 24  1  0  0  0  0
 12 25  1  0  0  0  0
 12 26  1  0  0  0  0
 13 27  1  0  0  0  0
 13 28  1  0  0  0  0
 15 29  1  0  0  0  0
M  END
$$$$
frag.vs.448
  -OEChem-01121112263D

 13 13  0     0  0  0  0  0  0999 V2000
    0.2265   -0.4197    0.9733 C   0  0  0  0  0  0  0  0  0  0  0  0
    1.6520   -0.6227    2.8997 C   0  0  0  0  0  0  0  0  0  0  0  0
   -0.6317   -1.3224    1.5803 C   0  0  0  0  0  0  0  0  0  0  0  0
    0.7299   -1.5161    3.4206 C   0  0  0  0  0  0  0  0  0  0  0  0
    1.3879   -0.0684    1.6522 C   0  0  0  0  0  0  0  0  0  0  0  0
   -0.4092   -1.8816    2.7908 N   0  0  0  0  0  0  0  0  0  0  0  0
    2.2946    0.8455    1.0779 N   0  0  0  0  0  0  0  0  0  0  0  0
   -0.0092   -0.0054   -0.0012 H   0  0  0  0  0  0  0  0  0  0  0  0
    2.5485   -0.3703    3.4561 H   0  0  0  0  0  0  0  0  0  0  0  0
   -1.5512   -1.6287    1.0923 H   0  0  0  0  0  0  0  0  0  0  0  0
    0.8888   -1.9761    4.3905 H   0  0  0  0  0  0  0  0  0  0  0  0
    2.1156    1.1997    0.1597 H   0  0  0  0  0  0  0  0  0  0  0  0
    3.1483    1.0526    1.5564 H   0  0  0  0  0  0  0  0  0  0  0  0
  1  3  1  0  0  0  0
  1  5  2  0  0  0  0
  2  4  2  0  0  0  0
  2  5  1  0  0  0  0
  3  6  2  0  0  0  0
  4  6  1  0  0  0  0
  5  7  1  0  0  0  0
  1  8  1  0  0  0  0
  2  9  1  0  0  0  0
  3 10  1  0  0  0  0
  4 11  1  0  0  0  0
  7 12  1  0  0  0  0
  7 13  1  0  0  0  0
M  END
$$$$
frag.vs.449
  -OEChem-01121112263D

 26 27  0     0  0  0  0  0  0999 V2000
   -2.1298   -3.8517    3.8323 C   0  0  0  0  0  0  0  0  0  0  0  0
    1.8881   -1.0347   -0.1123 C   0  0  0  0  0  0  0  0  0  0  0  0
    2.2623   -2.1868    0.5792 C   0  0  0  0  0  0  0  0  0  0  0  0
    1.4698    0.0955    0.5901 C   0  0  0  0  0  0  0  0  0  0  0  0
    2.2181   -2.2088    1.9732 C   0  0  0  0  0  0  0  0  0  0  0  0
    1.4256    0.0735    1.9841 C   0  0  0  0  0  0  0  0  0  0  0  0
    2.2551   -0.9376    6.1795 C   0  0  0  0  0  0  0  0  0  0  0  0
    0.9565   -1.3885    6.1509 C   0  0  0  0  0  0  0  0  0  0  0  0
    1.7997   -1.0786    2.6757 C   0  0  0  0  0  0  0  0  0  0  0  0
    1.7549   -1.1012    4.1171 C   0  0  0  0  0  0  0  0  0  0  0  0
   -0.8248   -3.4387    4.3685 C   0  0  0  0  0  0  0  0  0  0  0  0
   -0.6198   -1.9254    4.2898 C   0  0  0  0  0  0  0  0  0  0  0  0
   -3.1591   -4.1792    3.4085 N   0  0  0  0  0  0  0  0  0  0  0  0
    2.7462   -0.7604    4.9102 N   0  0  0  0  0  0  0  0  0  0  0  0
    0.6498   -1.4881    4.8230 N   0  0  0  0  0  0  0  0  0  0  0  0
    1.9232   -1.0174   -1.1977 H   0  0  0  0  0  0  0  0  0  0  0  0
    2.5878   -3.0668    0.0320 H   0  0  0  0  0  0  0  0  0  0  0  0
    1.1795    0.9930    0.0517 H   0  0  0  0  0  0  0  0  0  0  0  0
    2.5155   -3.1136    2.4978 H   0  0  0  0  0  0  0  0  0  0  0  0
    1.0961    0.9622    2.5170 H   0  0  0  0  0  0  0  0  0  0  0  0
    2.8613   -0.7317    7.0496 H   0  0  0  0  0  0  0  0  0  0  0  0
    0.2517   -1.6376    6.9320 H   0  0  0  0  0  0  0  0  0  0  0  0
   -0.7619   -3.7471    5.4187 H   0  0  0  0  0  0  0  0  0  0  0  0
   -0.0248   -3.9638    3.8341 H   0  0  0  0  0  0  0  0  0  0  0  0
   -1.3980   -1.4117    4.8676 H   0  0  0  0  0  0  0  0  0  0  0  0
   -0.6980   -1.5652    3.2567 H   0  0  0  0  0  0  0  0  0  0  0  0
  1 11  1  0  0  0  0
  1 13  3  0  0  0  0
  2  3  1  0  0  0  0
  2  4  2  0  0  0  0
  3  5  2  0  0  0  0
  4  6  1  0  0  0  0
  5  9  1  0  0  0  0
  6  9  2  0  0  0  0
  7  8  2  0  0  0  0
  7 14  1  0  0  0  0
  8 15  1  0  0  0  0
  9 10  1  0  0  0  0
 10 14  2  0  0  0  0
 10 15  1  0  0  0  0
 11 12  1  0  0  0  0
 12 15  1  0  0  0  0
  2 16  1  0  0  0  0
  3 17  1  0  0  0  0
  4 18  1  0  0  0  0
  5 19  1  0  0  0  0
  6 20  1  0  0  0  0
  7 21  1  0  0  0  0
  8 22  1  0  0  0  0
 11 23  1  0  0  0  0
 11 24  1  0  0  0  0
 12 25  1  0  0  0  0
 12 26  1  0  0  0  0
M  END
$$$$
frag.vs.450
  -OEChem-01121112263D

 24 25  0     0  0  0  0  0  0999 V2000
    1.8851   -1.0363   -0.1124 C   0  0  0  0  0  0  0  0  0  0  0  0
    0.8066   -0.4630    0.5610 C   0  0  0  0  0  0  0  0  0  0  0  0
    2.9210   -1.6309    0.6081 C   0  0  0  0  0  0  0  0  0  0  0  0
    1.7997   -1.0786    2.6757 C   0  0  0  0  0  0  0  0  0  0  0  0
    5.5864    0.1395    4.6857 C   0  0  0  0  0  0  0  0  0  0  0  0
    6.0991   -0.8894    2.9434 C   0  0  0  0  0  0  0  0  0  0  0  0
    0.7638   -0.4841    1.9551 C   0  0  0  0  0  0  0  0  0  0  0  0
    2.8783   -1.6520    2.0022 C   0  0  0  0  0  0  0  0  0  0  0  0
   -0.3612    0.1132    2.6568 C   0  0  0  0  0  0  0  0  0  0  0  0
    3.9860   -2.2876    2.7728 C   0  0  0  0  0  0  0  0  0  0  0  0
    6.5803    0.0220    3.7567 N   0  0  0  0  0  0  0  0  0  0  0  0
    4.5206   -0.6418    4.4985 N   0  0  0  0  0  0  0  0  0  0  0  0
    4.8740   -1.2895    3.3779 N   0  0  0  0  0  0  0  0  0  0  0  0
   -0.5014    0.1511    3.8837 O   0  0  0  0  0  0  0  0  0  0  0  0
   -1.2802    0.6482    1.8069 O   0  0  0  0  0  0  0  0  0  0  0  0
    1.9190   -1.0188   -1.1979 H   0  0  0  0  0  0  0  0  0  0  0  0
    0.0045   -0.0028   -0.0105 H   0  0  0  0  0  0  0  0  0  0  0  0
    3.7572   -2.0757    0.0750 H   0  0  0  0  0  0  0  0  0  0  0  0
    1.7685   -1.0950    3.7628 H   0  0  0  0  0  0  0  0  0  0  0  0
    5.6395    0.8170    5.5247 H   0  0  0  0  0  0  0  0  0  0  0  0
    6.5771   -1.2799    2.0561 H   0  0  0  0  0  0  0  0  0  0  0  0
    3.6050   -2.9297    3.5828 H   0  0  0  0  0  0  0  0  0  0  0  0
    4.6041   -2.9415    2.1373 H   0  0  0  0  0  0  0  0  0  0  0  0
   -2.0430    1.0547    2.2709 H   0  0  0  0  0  0  0  0  0  0  0  0
  1  2  2  0  0  0  0
  1  3  1  0  0  0  0
  2  7  1  0  0  0  0
  3  8  2  0  0  0  0
  4  7  2  0  0  0  0
  4  8  1  0  0  0  0
  5 11  1  0  0  0  0
  5 12  2  0  0  0  0
  6 11  2  0  0  0  0
  6 13  1  0  0  0  0
  7  9  1  0  0  0  0
  8 10  1  0  0  0  0
  9 14  2  0  0  0  0
  9 15  1  0  0  0  0
 10 13  1  0  0  0  0
 12 13  1  0  0  0  0
  1 16  1  0  0  0  0
  2 17  1  0  0  0  0
  3 18  1  0  0  0  0
  4 19  1  0  0  0  0
  5 20  1  0  0  0  0
  6 21  1  0  0  0  0
 10 22  1  0  0  0  0
 10 23  1  0  0  0  0
 15 24  1  0  0  0  0
M  END
$$$$
frag.vs.451
  -OEChem-01121112263D

 21 22  0     0  0  0  0  0  0999 V2000
    1.8851   -1.0363   -0.1124 C   0  0  0  0  0  0  0  0  0  0  0  0
    2.8783   -1.6520    2.0022 C   0  0  0  0  0  0  0  0  0  0  0  0
    0.8066   -0.4630    0.5610 C   0  0  0  0  0  0  0  0  0  0  0  0
    1.7997   -1.0786    2.6757 C   0  0  0  0  0  0  0  0  0  0  0  0
    4.4040   -2.3807   -1.4015 C   0  0  0  0  0  0  0  0  0  0  0  0
    5.9094   -3.2496   -0.2176 C   0  0  0  0  0  0  0  0  0  0  0  0
    2.9210   -1.6309    0.6081 C   0  0  0  0  0  0  0  0  0  0  0  0
    0.7638   -0.4841    1.9551 C   0  0  0  0  0  0  0  0  0  0  0  0
    4.0374   -2.2226   -0.0881 C   0  0  0  0  0  0  0  0  0  0  0  0
   -0.3603    0.1147    2.6571 C   0  0  0  0  0  0  0  0  0  0  0  0
    5.6045   -3.0393   -1.4782 N   0  0  0  0  0  0  0  0  0  0  0  0
   -1.3272    0.6664    2.1216 O   0  0  0  0  0  0  0  0  0  0  0  0
    5.0068   -2.7825    0.6879 O   0  0  0  0  0  0  0  0  0  0  0  0
   -0.2465    0.0070    4.0094 O   0  0  0  0  0  0  0  0  0  0  0  0
    1.9041   -1.0127   -1.1994 H   0  0  0  0  0  0  0  0  0  0  0  0
    3.6777   -2.1112    2.5787 H   0  0  0  0  0  0  0  0  0  0  0  0
    0.0046   -0.0019   -0.0101 H   0  0  0  0  0  0  0  0  0  0  0  0
    1.7758   -1.1007    3.7621 H   0  0  0  0  0  0  0  0  0  0  0  0
    3.8769   -2.0608   -2.2885 H   0  0  0  0  0  0  0  0  0  0  0  0
    6.7818   -3.7437    0.1829 H   0  0  0  0  0  0  0  0  0  0  0  0
   -1.0007    0.4073    4.4923 H   0  0  0  0  0  0  0  0  0  0  0  0
  1  3  1  0  0  0  0
  1  7  2  0  0  0  0
  2  4  2  0  0  0  0
  2  7  1  0  0  0  0
  3  8  2  0  0  0  0
  4  8  1  0  0  0  0
  5  9  2  0  0  0  0
  5 11  1  0  0  0  0
  6 11  2  0  0  0  0
  6 13  1  0  0  0  0
  7  9  1  0  0  0  0
  8 10  1  0  0  0  0
  9 13  1  0  0  0  0
 10 12  2  0  0  0  0
 10 14  1  0  0  0  0
  1 15  1  0  0  0  0
  2 16  1  0  0  0  0
  3 17  1  0  0  0  0
  4 18  1  0  0  0  0
  5 19  1  0  0  0  0
  6 20  1  0  0  0  0
 14 21  1  0  0  0  0
M  END
$$$$
frag.vs.452
  -OEChem-01121112263D

 20 21  0     0  0  0  0  0  0999 V2000
    1.8851   -1.0363   -0.1124 C   0  0  0  0  0  0  0  0  0  0  0  0
    2.8783   -1.6520    2.0022 C   0  0  0  0  0  0  0  0  0  0  0  0
    0.8066   -0.4630    0.5610 C   0  0  0  0  0  0  0  0  0  0  0  0
    1.7997   -1.0786    2.6757 C   0  0  0  0  0  0  0  0  0  0  0  0
    4.4020   -2.3834   -1.4018 C   0  0  0  0  0  0  0  0  0  0  0  0
    5.9076   -3.2523   -0.2181 C   0  0  0  0  0  0  0  0  0  0  0  0
    2.9210   -1.6309    0.6081 C   0  0  0  0  0  0  0  0  0  0  0  0
    0.7638   -0.4841    1.9551 C   0  0  0  0  0  0  0  0  0  0  0  0
    4.0364   -2.2239   -0.0882 C   0  0  0  0  0  0  0  0  0  0  0  0
    5.6020   -3.0429   -1.4787 N   0  0  0  0  0  0  0  0  0  0  0  0
   -0.3267    0.0955    2.6361 N   0  0  0  0  0  0  0  0  0  0  0  0
    5.0060   -2.7838    0.6876 O   0  0  0  0  0  0  0  0  0  0  0  0
    1.9040   -1.0119   -1.1995 H   0  0  0  0  0  0  0  0  0  0  0  0
    3.6781   -2.1116    2.5780 H   0  0  0  0  0  0  0  0  0  0  0  0
    0.0045   -0.0025   -0.0102 H   0  0  0  0  0  0  0  0  0  0  0  0
    1.7767   -1.1007    3.7622 H   0  0  0  0  0  0  0  0  0  0  0  0
    3.8745   -2.0640   -2.2887 H   0  0  0  0  0  0  0  0  0  0  0  0
    6.7800   -3.7466    0.1822 H   0  0  0  0  0  0  0  0  0  0  0  0
   -1.0393    0.5599    2.1102 H   0  0  0  0  0  0  0  0  0  0  0  0
   -0.3224    0.1155    3.6359 H   0  0  0  0  0  0  0  0  0  0  0  0
  1  3  1  0  0  0  0
  1  7  2  0  0  0  0
  2  4  2  0  0  0  0
  2  7  1  0  0  0  0
  3  8  2  0  0  0  0
  4  8  1  0  0  0  0
  5  9  2  0  0  0  0
  5 10  1  0  0  0  0
  6 10  2  0  0  0  0
  6 12  1  0  0  0  0
  7  9  1  0  0  0  0
  8 11  1  0  0  0  0
  9 12  1  0  0  0  0
  1 13  1  0  0  0  0
  2 14  1  0  0  0  0
  3 15  1  0  0  0  0
  4 16  1  0  0  0  0
  5 17  1  0  0  0  0
  6 18  1  0  0  0  0
 11 19  1  0  0  0  0
 11 20  1  0  0  0  0
M  END
$$$$
frag.vs.453
  -OEChem-01121112263D

 20 21  0     0  0  0  0  0  0999 V2000
    1.8851   -1.0363   -0.1124 C   0  0  0  0  0  0  0  0  0  0  0  0
    0.8066   -0.4630    0.5610 C   0  0  0  0  0  0  0  0  0  0  0  0
    2.9210   -1.6309    0.6081 C   0  0  0  0  0  0  0  0  0  0  0  0
    1.7997   -1.0786    2.6757 C   0  0  0  0  0  0  0  0  0  0  0  0
   -0.7179    0.2682    3.9647 C   0  0  0  0  0  0  0  0  0  0  0  0
   -2.2238    1.1361    2.7805 C   0  0  0  0  0  0  0  0  0  0  0  0
    0.7638   -0.4841    1.9551 C   0  0  0  0  0  0  0  0  0  0  0  0
    2.8783   -1.6520    2.0022 C   0  0  0  0  0  0  0  0  0  0  0  0
   -0.3520    0.1086    2.6512 C   0  0  0  0  0  0  0  0  0  0  0  0
   -1.9181    0.9275    4.0412 N   0  0  0  0  0  0  0  0  0  0  0  0
    3.9259   -2.2532    2.7303 N   0  0  0  0  0  0  0  0  0  0  0  0
   -1.3217    0.6679    1.8750 O   0  0  0  0  0  0  0  0  0  0  0  0
    1.9186   -1.0198   -1.1978 H   0  0  0  0  0  0  0  0  0  0  0  0
    0.0068   -0.0033   -0.0151 H   0  0  0  0  0  0  0  0  0  0  0  0
    3.7566   -2.0746    0.0729 H   0  0  0  0  0  0  0  0  0  0  0  0
    1.7713   -1.0974    3.7637 H   0  0  0  0  0  0  0  0  0  0  0  0
   -0.1905   -0.0509    4.8517 H   0  0  0  0  0  0  0  0  0  0  0  0
   -3.0965    1.6297    2.3799 H   0  0  0  0  0  0  0  0  0  0  0  0
    4.6696   -2.7020    2.2349 H   0  0  0  0  0  0  0  0  0  0  0  0
    3.8608   -2.3037    3.7269 H   0  0  0  0  0  0  0  0  0  0  0  0
  1  2  1  0  0  0  0
  1  3  2  0  0  0  0
  2  7  2  0  0  0  0
  3  8  1  0  0  0  0
  4  7  1  0  0  0  0
  4  8  2  0  0  0  0
  5  9  2  0  0  0  0
  5 10  1  0  0  0  0
  6 10  2  0  0  0  0
  6 12  1  0  0  0  0
  7  9  1  0  0  0  0
  8 11  1  0  0  0  0
  9 12  1  0  0  0  0
  1 13  1  0  0  0  0
  2 14  1  0  0  0  0
  3 15  1  0  0  0  0
  4 16  1  0  0  0  0
  5 17  1  0  0  0  0
  6 18  1  0  0  0  0
 11 19  1  0  0  0  0
 11 20  1  0  0  0  0
M  END
$$$$
frag.vs.454
  -OEChem-01121112263D

 26 27  0     0  0  0  0  0  0999 V2000
    1.8861   -1.0331   -0.1124 C   0  0  0  0  0  0  0  0  0  0  0  0
    3.0005   -0.6360    0.6265 C   0  0  0  0  0  0  0  0  0  0  0  0
    0.7284   -1.4529    0.5428 C   0  0  0  0  0  0  0  0  0  0  0  0
    2.9574   -0.6588    2.0205 C   0  0  0  0  0  0  0  0  0  0  0  0
    0.6852   -1.4757    1.9368 C   0  0  0  0  0  0  0  0  0  0  0  0
    1.5436   -0.7333    6.2746 C   0  0  0  0  0  0  0  0  0  0  0  0
    1.7997   -1.0786    2.6757 C   0  0  0  0  0  0  0  0  0  0  0  0
    1.3734   -0.1325    5.0129 C   0  0  0  0  0  0  0  0  0  0  0  0
    1.7549   -1.1012    4.1171 C   0  0  0  0  0  0  0  0  0  0  0  0
    2.5932   -3.4591    4.3886 C   0  0  0  0  0  0  0  0  0  0  0  0
    0.8928    1.2313    4.7310 C   0  0  0  0  0  0  0  0  0  0  0  0
    1.9977   -1.9867    6.1918 N   0  0  0  0  0  0  0  0  0  0  0  0
    2.1161   -2.1814    4.8674 N   0  0  0  0  0  0  0  0  0  0  0  0
    1.9853    2.0660    4.3434 O   0  0  0  0  0  0  0  0  0  0  0  0
    1.9195   -1.0148   -1.1978 H   0  0  0  0  0  0  0  0  0  0  0  0
    3.9020   -0.3094    0.1161 H   0  0  0  0  0  0  0  0  0  0  0  0
   -0.1398   -1.7611   -0.0325 H   0  0  0  0  0  0  0  0  0  0  0  0
    3.8335   -0.3437    2.5822 H   0  0  0  0  0  0  0  0  0  0  0  0
   -0.2243   -1.8065    2.4326 H   0  0  0  0  0  0  0  0  0  0  0  0
    1.3565   -0.3124    7.2523 H   0  0  0  0  0  0  0  0  0  0  0  0
    3.6824   -3.4054    4.3126 H   0  0  0  0  0  0  0  0  0  0  0  0
    2.2971   -4.2443    5.0898 H   0  0  0  0  0  0  0  0  0  0  0  0
    2.1504   -3.6667    3.4105 H   0  0  0  0  0  0  0  0  0  0  0  0
    0.1458    1.2524    3.9166 H   0  0  0  0  0  0  0  0  0  0  0  0
    0.4092    1.6912    5.6120 H   0  0  0  0  0  0  0  0  0  0  0  0
    1.6113    2.9432    4.1722 H   0  0  0  0  0  0  0  0  0  0  0  0
  1  2  1  0  0  0  0
  1  3  2  0  0  0  0
  2  4  2  0  0  0  0
  3  5  1  0  0  0  0
  4  7  1  0  0  0  0
  5  7  2  0  0  0  0
  6  8  1  0  0  0  0
  6 12  2  0  0  0  0
  7  9  1  0  0  0  0
  8  9  2  0  0  0  0
  8 11  1  0  0  0  0
  9 13  1  0  0  0  0
 10 13  1  0  0  0  0
 11 14  1  0  0  0  0
 12 13  1  0  0  0  0
  1 15  1  0  0  0  0
  2 16  1  0  0  0  0
  3 17  1  0  0  0  0
  4 18  1  0  0  0  0
  5 19  1  0  0  0  0
  6 20  1  0  0  0  0
 10 21  1  0  0  0  0
 10 22  1  0  0  0  0
 10 23  1  0  0  0  0
 11 24  1  0  0  0  0
 11 25  1  0  0  0  0
 14 26  1  0  0  0  0
M  END
$$$$
frag.vs.455
  -OEChem-01121112263D

 26 26  0     0  0  0  0  0  0999 V2000
   -2.4599   -2.1349    1.5000 C   0  0  0  0  0  0  0  0  0  0  0  0
   -2.1077   -0.7840    1.6815 C   0  0  0  0  0  0  0  0  0  0  0  0
   -2.3082   -2.6993    2.7429 C   0  0  0  0  0  0  0  0  0  0  0  0
   -3.5060    0.5071    0.0311 C   0  0  0  0  0  0  0  0  0  0  0  0
   -1.1110   -0.0460   -0.5114 C   0  0  0  0  0  0  0  0  0  0  0  0
   -1.6485    1.7063    1.1684 C   0  0  0  0  0  0  0  0  0  0  0  0
   -1.5861   -1.7795    4.9719 C   0  0  0  0  0  0  0  0  0  0  0  0
   -2.0904    0.3299    0.6216 C   0  0  0  0  0  0  0  0  0  0  0  0
   -1.7587   -0.5068    2.9406 N   0  0  0  0  0  0  0  0  0  0  0  0
   -1.8909   -1.6913    3.5616 N   0  0  0  0  0  0  0  0  0  0  0  0
   -2.4932   -3.9560    3.1968 N   0  0  0  0  0  0  0  0  0  0  0  0
   -2.7778   -2.6297    0.5934 H   0  0  0  0  0  0  0  0  0  0  0  0
   -3.5213    1.2971   -0.7287 H   0  0  0  0  0  0  0  0  0  0  0  0
   -3.8720   -0.4066   -0.4500 H   0  0  0  0  0  0  0  0  0  0  0  0
   -4.2272    0.7799    0.8107 H   0  0  0  0  0  0  0  0  0  0  0  0
   -1.0658    0.7213   -1.2919 H   0  0  0  0  0  0  0  0  0  0  0  0
   -0.0920   -0.1725   -0.1274 H   0  0  0  0  0  0  0  0  0  0  0  0
   -1.4057   -0.9867   -0.9916 H   0  0  0  0  0  0  0  0  0  0  0  0
   -1.6523    2.4655    0.3771 H   0  0  0  0  0  0  0  0  0  0  0  0
   -2.3207    2.0616    1.9582 H   0  0  0  0  0  0  0  0  0  0  0  0
   -0.6313    1.6711    1.5757 H   0  0  0  0  0  0  0  0  0  0  0  0
   -0.5255   -2.0246    5.0731 H   0  0  0  0  0  0  0  0  0  0  0  0
   -1.8047   -0.8217    5.4523 H   0  0  0  0  0  0  0  0  0  0  0  0
   -2.2046   -2.5579    5.4273 H   0  0  0  0  0  0  0  0  0  0  0  0
   -2.8524   -4.7109    2.5928 H   0  0  0  0  0  0  0  0  0  0  0  0
   -2.3752   -4.2037    4.1910 H   0  0  0  0  0  0  0  0  0  0  0  0
  1  2  1  0  0  0  0
  1  3  2  0  0  0  0
  2  8  1  0  0  0  0
  2  9  2  0  0  0  0
  3 10  1  0  0  0  0
  3 11  1  0  0  0  0
  4  8  1  0  0  0  0
  5  8  1  0  0  0  0
  6  8  1  0  0  0  0
  7 10  1  0  0  0  0
  9 10  1  0  0  0  0
  1 12  1  0  0  0  0
  4 13  1  0  0  0  0
  4 14  1  0  0  0  0
  4 15  1  0  0  0  0
  5 16  1  0  0  0  0
  5 17  1  0  0  0  0
  5 18  1  0  0  0  0
  6 19  1  0  0  0  0
  6 20  1  0  0  0  0
  6 21  1  0  0  0  0
  7 22  1  0  0  0  0
  7 23  1  0  0  0  0
  7 24  1  0  0  0  0
 11 25  1  0  0  0  0
 11 26  1  0  0  0  0
M  END
$$$$
frag.vs.456
  -OEChem-01121112263D

 24 25  0     0  0  0  0  0  0999 V2000
    1.8846   -1.0357   -0.1124 C   0  0  0  0  0  0  0  0  0  0  0  0
    1.0036   -1.8940    0.5453 C   0  0  0  0  0  0  0  0  0  0  0  0
    2.7232   -0.1989    0.6238 C   0  0  0  0  0  0  0  0  0  0  0  0
    0.9611   -1.9155    1.9394 C   0  0  0  0  0  0  0  0  0  0  0  0
    2.6807   -0.2203    2.0179 C   0  0  0  0  0  0  0  0  0  0  0  0
    1.4307   -2.2009    4.9263 C   0  0  0  0  0  0  0  0  0  0  0  0
    1.7997   -1.0786    2.6757 C   0  0  0  0  0  0  0  0  0  0  0  0
    1.7561   -1.1004    4.1109 C   0  0  0  0  0  0  0  0  0  0  0  0
    1.5302   -1.7193    6.2088 C   0  0  0  0  0  0  0  0  0  0  0  0
    2.1302    0.5333    7.1574 C   0  0  0  0  0  0  0  0  0  0  0  0
    2.0407   -0.0024    4.8162 N   0  0  0  0  0  0  0  0  0  0  0  0
    1.8945   -0.4105    6.0882 N   0  0  0  0  0  0  0  0  0  0  0  0
    1.3402   -2.3000    7.4113 N   0  0  0  0  0  0  0  0  0  0  0  0
    1.9185   -1.0196   -1.1979 H   0  0  0  0  0  0  0  0  0  0  0  0
    0.3514   -2.5466   -0.0277 H   0  0  0  0  0  0  0  0  0  0  0  0
    3.4100    0.4684    0.1115 H   0  0  0  0  0  0  0  0  0  0  0  0
    0.2688   -2.5902    2.4375 H   0  0  0  0  0  0  0  0  0  0  0  0
    3.3411    0.4383    2.5774 H   0  0  0  0  0  0  0  0  0  0  0  0
    1.1624   -3.2050    4.6289 H   0  0  0  0  0  0  0  0  0  0  0  0
    3.1873    0.4768    7.4303 H   0  0  0  0  0  0  0  0  0  0  0  0
    1.8769    1.5409    6.8161 H   0  0  0  0  0  0  0  0  0  0  0  0
    1.4992    0.2757    8.0126 H   0  0  0  0  0  0  0  0  0  0  0  0
    1.0205   -3.2760    7.5058 H   0  0  0  0  0  0  0  0  0  0  0  0
    1.4133   -1.7715    8.2940 H   0  0  0  0  0  0  0  0  0  0  0  0
  1  2  1  0  0  0  0
  1  3  2  0  0  0  0
  2  4  2  0  0  0  0
  3  5  1  0  0  0  0
  4  7  1  0  0  0  0
  5  7  2  0  0  0  0
  6  8  1  0  0  0  0
  6  9  2  0  0  0  0
  7  8  1  0  0  0  0
  8 11  2  0  0  0  0
  9 12  1  0  0  0  0
  9 13  1  0  0  0  0
 10 12  1  0  0  0  0
 11 12  1  0  0  0  0
  1 14  1  0  0  0  0
  2 15  1  0  0  0  0
  3 16  1  0  0  0  0
  4 17  1  0  0  0  0
  5 18  1  0  0  0  0
  6 19  1  0  0  0  0
 10 20  1  0  0  0  0
 10 21  1  0  0  0  0
 10 22  1  0  0  0  0
 13 23  1  0  0  0  0
 13 24  1  0  0  0  0
M  END
$$$$
frag.vs.457
  -OEChem-01121112263D

 26 27  0     0  0  0  0  0  0999 V2000
   -0.0019   -0.7252    0.8101 C   0  0  0  0  0  0  0  0  0  0  0  0
   -0.5949   -1.9764    0.6076 C   0  0  0  0  0  0  0  0  0  0  0  0
    0.6059   -1.2963    3.1005 C   0  0  0  0  0  0  0  0  0  0  0  0
    0.5879   -0.3895    2.0326 C   0  0  0  0  0  0  0  0  0  0  0  0
    0.0148   -2.5539    2.9104 C   0  0  0  0  0  0  0  0  0  0  0  0
   -0.5629   -2.8586    1.6855 C   0  0  0  0  0  0  0  0  0  0  0  0
    1.1934    0.9228    2.2013 C   0  0  0  0  0  0  0  0  0  0  0  0
   -3.1355   -5.3058    1.3866 C   0  0  0  0  0  0  0  0  0  0  0  0
   -0.9228   -6.2232    0.5689 C   0  0  0  0  0  0  0  0  0  0  0  0
   -1.7198   -4.9647    0.9175 C   0  0  0  0  0  0  0  0  0  0  0  0
   -0.1175   -3.6247    3.7544 N   0  0  0  0  0  0  0  0  0  0  0  0
   -0.7576   -4.5879    3.1003 N   0  0  0  0  0  0  0  0  0  0  0  0
   -1.0237   -4.1307    1.8656 N   0  0  0  0  0  0  0  0  0  0  0  0
    1.2404    1.8051    1.3385 O   0  0  0  0  0  0  0  0  0  0  0  0
    1.7216    1.0957    3.4436 O   0  0  0  0  0  0  0  0  0  0  0  0
   -0.0063   -0.0074   -0.0079 H   0  0  0  0  0  0  0  0  0  0  0  0
   -1.0526   -2.2384   -0.3393 H   0  0  0  0  0  0  0  0  0  0  0  0
    1.0631   -1.0381    4.0508 H   0  0  0  0  0  0  0  0  0  0  0  0
   -3.1293   -5.8966    2.3088 H   0  0  0  0  0  0  0  0  0  0  0  0
   -3.6642   -5.8864    0.6230 H   0  0  0  0  0  0  0  0  0  0  0  0
   -3.7136   -4.3949    1.5778 H   0  0  0  0  0  0  0  0  0  0  0  0
   -0.7896   -6.8580    1.4519 H   0  0  0  0  0  0  0  0  0  0  0  0
    0.0705   -5.9571    0.1922 H   0  0  0  0  0  0  0  0  0  0  0  0
   -1.4211   -6.8226   -0.2005 H   0  0  0  0  0  0  0  0  0  0  0  0
   -1.8167   -4.3768   -0.0044 H   0  0  0  0  0  0  0  0  0  0  0  0
    2.1317    1.9782    3.5678 H   0  0  0  0  0  0  0  0  0  0  0  0
  1  2  2  0  0  0  0
  1  4  1  0  0  0  0
  2  6  1  0  0  0  0
  3  4  2  0  0  0  0
  3  5  1  0  0  0  0
  4  7  1  0  0  0  0
  5  6  2  0  0  0  0
  5 11  1  0  0  0  0
  6 13  1  0  0  0  0
  7 14  2  0  0  0  0
  7 15  1  0  0  0  0
  8 10  1  0  0  0  0
  9 10  1  0  0  0  0
 10 13  1  0  0  0  0
 11 12  2  0  0  0  0
 12 13  1  0  0  0  0
  1 16  1  0  0  0  0
  2 17  1  0  0  0  0
  3 18  1  0  0  0  0
  8 19  1  0  0  0  0
  8 20  1  0  0  0  0
  8 21  1  0  0  0  0
  9 22  1  0  0  0  0
  9 23  1  0  0  0  0
  9 24  1  0  0  0  0
 10 25  1  0  0  0  0
 15 26  1  0  0  0  0
M  END
$$$$
frag.vs.458
  -OEChem-01121112263D

 29 31  0     0  0  0  0  0  0999 V2000
   -0.5321   -2.4212   -6.1308 C   0  0  0  0  0  0  0  0  0  0  0  0
   -1.7555   -2.3389   -5.4588 C   0  0  0  0  0  0  0  0  0  0  0  0
    0.6812   -2.2786   -5.4448 C   0  0  0  0  0  0  0  0  0  0  0  0
   -1.8141   -2.1117   -4.0793 C   0  0  0  0  0  0  0  0  0  0  0  0
    0.6363   -2.0505   -4.0617 C   0  0  0  0  0  0  0  0  0  0  0  0
   -0.5933   -1.9738   -3.4221 C   0  0  0  0  0  0  0  0  0  0  0  0
   -1.0306   -0.1902   -0.3254 C   0  0  0  0  0  0  0  0  0  0  0  0
   -0.9715   -2.6809    0.0879 C   0  0  0  0  0  0  0  0  0  0  0  0
   -1.9633   -0.0659    0.8793 C   0  0  0  0  0  0  0  0  0  0  0  0
   -1.9064   -2.4524    1.2754 C   0  0  0  0  0  0  0  0  0  0  0  0
   -1.1490   -1.5803   -0.9700 C   0  0  0  0  0  0  0  0  0  0  0  0
    1.6380   -1.8746   -3.1440 N   0  0  0  0  0  0  0  0  0  0  0  0
    1.0779   -1.6907   -1.9534 N   0  0  0  0  0  0  0  0  0  0  0  0
   -0.2538   -1.7496   -2.1192 N   0  0  0  0  0  0  0  0  0  0  0  0
   -1.7175   -1.1241    1.8598 N   0  0  0  0  0  0  0  0  0  0  0  0
   -0.5211   -2.5987   -7.2032 H   0  0  0  0  0  0  0  0  0  0  0  0
   -2.6804   -2.4537   -6.0188 H   0  0  0  0  0  0  0  0  0  0  0  0
    1.6259   -2.3439   -5.9746 H   0  0  0  0  0  0  0  0  0  0  0  0
   -2.7616   -2.0476   -3.5570 H   0  0  0  0  0  0  0  0  0  0  0  0
   -1.2717    0.5872   -1.0607 H   0  0  0  0  0  0  0  0  0  0  0  0
    0.0055   -0.0092   -0.0090 H   0  0  0  0  0  0  0  0  0  0  0  0
    0.0697   -2.7021    0.4374 H   0  0  0  0  0  0  0  0  0  0  0  0
   -1.1709   -3.6642   -0.3556 H   0  0  0  0  0  0  0  0  0  0  0  0
   -1.8097    0.9064    1.3602 H   0  0  0  0  0  0  0  0  0  0  0  0
   -3.0107   -0.0941    0.5553 H   0  0  0  0  0  0  0  0  0  0  0  0
   -2.9516   -2.5791    0.9682 H   0  0  0  0  0  0  0  0  0  0  0  0
   -1.7118   -3.2091    2.0435 H   0  0  0  0  0  0  0  0  0  0  0  0
   -2.1754   -1.6776   -1.4093 H   0  0  0  0  0  0  0  0  0  0  0  0
   -0.7579   -1.0460    2.1974 H   0  0  0  0  0  0  0  0  0  0  0  0
  1  2  1  0  0  0  0
  1  3  2  0  0  0  0
  2  4  2  0  0  0  0
  3  5  1  0  0  0  0
  4  6  1  0  0  0  0
  5  6  2  0  0  0  0
  5 12  1  0  0  0  0
  6 14  1  0  0  0  0
  7  9  1  0  0  0  0
  7 11  1  0  0  0  0
  8 10  1  0  0  0  0
  8 11  1  0  0  0  0
  9 15  1  0  0  0  0
 10 15  1  0  0  0  0
 11 14  1  0  0  0  0
 12 13  2  0  0  0  0
 13 14  1  0  0  0  0
  1 16  1  0  0  0  0
  2 17  1  0  0  0  0
  3 18  1  0  0  0  0
  4 19  1  0  0  0  0
  7 20  1  0  0  0  0
  7 21  1  0  0  0  0
  8 22  1  0  0  0  0
  8 23  1  0  0  0  0
  9 24  1  0  0  0  0
  9 25  1  0  0  0  0
 10 26  1  0  0  0  0
 10 27  1  0  0  0  0
 11 28  1  0  0  0  0
 15 29  1  0  0  0  0
M  END
$$$$
frag.vs.459
  -OEChem-01121112263D

 12 12  0     0  0  0  0  0  0999 V2000
    1.9416   -0.9307    0.0031 C   0  0  0  0  0  0  0  0  0  0  0  0
    0.7672   -0.4945   -0.5846 C   0  0  0  0  0  0  0  0  0  0  0  0
    2.8745   -1.5530   -0.8019 C   0  0  0  0  0  0  0  0  0  0  0  0
    0.6036   -0.7091   -1.9384 C   0  0  0  0  0  0  0  0  0  0  0  0
    2.6878   -1.7498   -2.1242 N   0  0  0  0  0  0  0  0  0  0  0  0
    1.5337   -1.3207   -2.7018 N   0  0  0  0  0  0  0  0  0  0  0  0
    4.0745   -1.9989   -0.2008 N   0  0  0  0  0  0  0  0  0  0  0  0
   -0.8099   -0.2100   -2.7663 Cl  0  0  0  0  0  0  0  0  0  0  0  0
    2.1102   -0.7816    1.0646 H   0  0  0  0  0  0  0  0  0  0  0  0
    0.0070   -0.0006    0.0112 H   0  0  0  0  0  0  0  0  0  0  0  0
    4.2304   -1.8102    0.7668 H   0  0  0  0  0  0  0  0  0  0  0  0
    4.7803   -2.4084   -0.7755 H   0  0  0  0  0  0  0  0  0  0  0  0
  1  2  1  0  0  0  0
  1  3  2  0  0  0  0
  2  4  2  0  0  0  0
  3  5  1  0  0  0  0
  3  7  1  0  0  0  0
  4  6  1  0  0  0  0
  4  8  1  0  0  0  0
  5  6  2  0  0  0  0
  1  9  1  0  0  0  0
  2 10  1  0  0  0  0
  7 11  1  0  0  0  0
  7 12  1  0  0  0  0
M  END
$$$$
frag.vs.460
  -OEChem-01121112263D

 21 22  0     0  0  0  0  0  0999 V2000
    1.8851   -1.0363   -0.1124 C   0  0  0  0  0  0  0  0  0  0  0  0
    2.8783   -1.6520    2.0022 C   0  0  0  0  0  0  0  0  0  0  0  0
    0.8066   -0.4630    0.5610 C   0  0  0  0  0  0  0  0  0  0  0  0
    1.7997   -1.0786    2.6757 C   0  0  0  0  0  0  0  0  0  0  0  0
    4.4779   -1.7615   -1.3084 C   0  0  0  0  0  0  0  0  0  0  0  0
    2.9210   -1.6309    0.6081 C   0  0  0  0  0  0  0  0  0  0  0  0
    0.7638   -0.4841    1.9551 C   0  0  0  0  0  0  0  0  0  0  0  0
    4.0325   -2.2199   -0.0848 C   0  0  0  0  0  0  0  0  0  0  0  0
   -0.3600    0.1150    2.6569 C   0  0  0  0  0  0  0  0  0  0  0  0
    4.7313   -3.2956    0.4400 N   0  0  0  0  0  0  0  0  0  0  0  0
    5.7125   -3.6754   -0.3629 N   0  0  0  0  0  0  0  0  0  0  0  0
   -0.3547    0.0674    4.0480 N   0  0  0  0  0  0  0  0  0  0  0  0
   -1.3048    0.6386    2.0406 O   0  0  0  0  0  0  0  0  0  0  0  0
    5.8087   -2.7484   -1.7549 S   0  0  0  0  0  0  0  0  0  0  0  0
    1.9034   -1.0126   -1.1996 H   0  0  0  0  0  0  0  0  0  0  0  0
    3.6779   -2.1108    2.5789 H   0  0  0  0  0  0  0  0  0  0  0  0
    0.0053   -0.0014   -0.0104 H   0  0  0  0  0  0  0  0  0  0  0  0
    1.7762   -1.1010    3.7622 H   0  0  0  0  0  0  0  0  0  0  0  0
    4.1151   -0.9506   -1.9248 H   0  0  0  0  0  0  0  0  0  0  0  0
    0.4214   -0.3773    4.5260 H   0  0  0  0  0  0  0  0  0  0  0  0
   -1.1103    0.4679    4.5946 H   0  0  0  0  0  0  0  0  0  0  0  0
  1  3  1  0  0  0  0
  1  6  2  0  0  0  0
  2  4  2  0  0  0  0
  2  6  1  0  0  0  0
  3  7  2  0  0  0  0
  4  7  1  0  0  0  0
  5  8  2  0  0  0  0
  5 14  1  0  0  0  0
  6  8  1  0  0  0  0
  7  9  1  0  0  0  0
  8 10  1  0  0  0  0
  9 12  1  0  0  0  0
  9 13  2  0  0  0  0
 10 11  2  0  0  0  0
 11 14  1  0  0  0  0
  1 15  1  0  0  0  0
  2 16  1  0  0  0  0
  3 17  1  0  0  0  0
  4 18  1  0  0  0  0
  5 19  1  0  0  0  0
 12 20  1  0  0  0  0
 12 21  1  0  0  0  0
M  END
$$$$
frag.vs.461
  -OEChem-01121112263D

 22 23  0     0  0  0  0  0  0999 V2000
    1.8851   -1.0363   -0.1124 C   0  0  0  0  0  0  0  0  0  0  0  0
    2.8783   -1.6520    2.0022 C   0  0  0  0  0  0  0  0  0  0  0  0
    0.8066   -0.4630    0.5610 C   0  0  0  0  0  0  0  0  0  0  0  0
    1.7997   -1.0786    2.6757 C   0  0  0  0  0  0  0  0  0  0  0  0
    4.4760   -1.7620   -1.3098 C   0  0  0  0  0  0  0  0  0  0  0  0
    2.9210   -1.6309    0.6081 C   0  0  0  0  0  0  0  0  0  0  0  0
    0.7638   -0.4841    1.9551 C   0  0  0  0  0  0  0  0  0  0  0  0
    4.0316   -2.2203   -0.0857 C   0  0  0  0  0  0  0  0  0  0  0  0
   -0.3892    0.1303    2.6742 C   0  0  0  0  0  0  0  0  0  0  0  0
    4.7306   -3.2961    0.4386 N   0  0  0  0  0  0  0  0  0  0  0  0
    5.7109   -3.6763   -0.3652 N   0  0  0  0  0  0  0  0  0  0  0  0
   -0.3262    1.5698    2.6813 N   0  0  0  0  0  0  0  0  0  0  0  0
    5.8062   -2.7494   -1.7573 S   0  0  0  0  0  0  0  0  0  0  0  0
    1.9030   -1.0121   -1.1995 H   0  0  0  0  0  0  0  0  0  0  0  0
    3.6781   -2.1116    2.5782 H   0  0  0  0  0  0  0  0  0  0  0  0
    0.0041   -0.0011   -0.0080 H   0  0  0  0  0  0  0  0  0  0  0  0
    1.7740   -1.0992    3.7620 H   0  0  0  0  0  0  0  0  0  0  0  0
    4.1129   -0.9512   -1.9258 H   0  0  0  0  0  0  0  0  0  0  0  0
   -1.3435   -0.1559    2.2101 H   0  0  0  0  0  0  0  0  0  0  0  0
   -0.4340   -0.2006    3.7209 H   0  0  0  0  0  0  0  0  0  0  0  0
   -0.7822    2.0750    3.4225 H   0  0  0  0  0  0  0  0  0  0  0  0
   -0.0118    2.0490    1.8542 H   0  0  0  0  0  0  0  0  0  0  0  0
  1  3  1  0  0  0  0
  1  6  2  0  0  0  0
  2  4  2  0  0  0  0
  2  6  1  0  0  0  0
  3  7  2  0  0  0  0
  4  7  1  0  0  0  0
  5  8  2  0  0  0  0
  5 13  1  0  0  0  0
  6  8  1  0  0  0  0
  7  9  1  0  0  0  0
  8 10  1  0  0  0  0
  9 12  1  0  0  0  0
 10 11  2  0  0  0  0
 11 13  1  0  0  0  0
  1 14  1  0  0  0  0
  2 15  1  0  0  0  0
  3 16  1  0  0  0  0
  4 17  1  0  0  0  0
  5 18  1  0  0  0  0
  9 19  1  0  0  0  0
  9 20  1  0  0  0  0
 12 21  1  0  0  0  0
 12 22  1  0  0  0  0
M  END
$$$$
frag.vs.462
  -OEChem-01121112263D

 19 20  0     0  0  0  0  0  0999 V2000
    1.8851   -1.0363   -0.1124 C   0  0  0  0  0  0  0  0  0  0  0  0
    2.8783   -1.6520    2.0022 C   0  0  0  0  0  0  0  0  0  0  0  0
    0.8066   -0.4630    0.5610 C   0  0  0  0  0  0  0  0  0  0  0  0
    1.7997   -1.0786    2.6757 C   0  0  0  0  0  0  0  0  0  0  0  0
    3.9154   -2.7801   -1.3421 C   0  0  0  0  0  0  0  0  0  0  0  0
    2.9210   -1.6309    0.6081 C   0  0  0  0  0  0  0  0  0  0  0  0
    0.7638   -0.4841    1.9551 C   0  0  0  0  0  0  0  0  0  0  0  0
    4.0313   -2.2212   -0.0852 C   0  0  0  0  0  0  0  0  0  0  0  0
    5.2991   -2.2652    0.4731 N   0  0  0  0  0  0  0  0  0  0  0  0
    6.1661   -2.8517   -0.3369 N   0  0  0  0  0  0  0  0  0  0  0  0
   -0.3267    0.0956    2.6361 N   0  0  0  0  0  0  0  0  0  0  0  0
    5.4724   -3.3566   -1.7756 S   0  0  0  0  0  0  0  0  0  0  0  0
    1.9036   -1.0116   -1.1995 H   0  0  0  0  0  0  0  0  0  0  0  0
    3.6779   -2.1116    2.5784 H   0  0  0  0  0  0  0  0  0  0  0  0
    0.0045   -0.0023   -0.0100 H   0  0  0  0  0  0  0  0  0  0  0  0
    1.7764   -1.1007    3.7622 H   0  0  0  0  0  0  0  0  0  0  0  0
    3.0534   -2.8745   -1.9878 H   0  0  0  0  0  0  0  0  0  0  0  0
   -1.0393    0.5599    2.1102 H   0  0  0  0  0  0  0  0  0  0  0  0
   -0.3224    0.1156    3.6359 H   0  0  0  0  0  0  0  0  0  0  0  0
  1  3  1  0  0  0  0
  1  6  2  0  0  0  0
  2  4  2  0  0  0  0
  2  6  1  0  0  0  0
  3  7  2  0  0  0  0
  4  7  1  0  0  0  0
  5  8  2  0  0  0  0
  5 12  1  0  0  0  0
  6  8  1  0  0  0  0
  7 11  1  0  0  0  0
  8  9  1  0  0  0  0
  9 10  2  0  0  0  0
 10 12  1  0  0  0  0
  1 13  1  0  0  0  0
  2 14  1  0  0  0  0
  3 15  1  0  0  0  0
  4 16  1  0  0  0  0
  5 17  1  0  0  0  0
 11 18  1  0  0  0  0
 11 19  1  0  0  0  0
M  END
$$$$
frag.vs.463
  -OEChem-01121112263D

 20 21  0     0  0  0  0  0  0999 V2000
   -0.0019   -0.7252    0.8101 C   0  0  0  0  0  0  0  0  0  0  0  0
   -0.5949   -1.9764    0.6076 C   0  0  0  0  0  0  0  0  0  0  0  0
    0.6059   -1.2963    3.1005 C   0  0  0  0  0  0  0  0  0  0  0  0
    0.5879   -0.3895    2.0326 C   0  0  0  0  0  0  0  0  0  0  0  0
    0.0148   -2.5539    2.9104 C   0  0  0  0  0  0  0  0  0  0  0  0
   -0.5629   -2.8586    1.6855 C   0  0  0  0  0  0  0  0  0  0  0  0
    1.1934    0.9228    2.2013 C   0  0  0  0  0  0  0  0  0  0  0  0
   -1.7198   -4.9647    0.9175 C   0  0  0  0  0  0  0  0  0  0  0  0
   -0.1175   -3.6247    3.7544 N   0  0  0  0  0  0  0  0  0  0  0  0
   -0.7576   -4.5879    3.1003 N   0  0  0  0  0  0  0  0  0  0  0  0
   -1.0237   -4.1307    1.8656 N   0  0  0  0  0  0  0  0  0  0  0  0
    1.2404    1.8051    1.3385 O   0  0  0  0  0  0  0  0  0  0  0  0
    1.7216    1.0957    3.4436 O   0  0  0  0  0  0  0  0  0  0  0  0
   -0.0063   -0.0074   -0.0079 H   0  0  0  0  0  0  0  0  0  0  0  0
   -1.0526   -2.2384   -0.3393 H   0  0  0  0  0  0  0  0  0  0  0  0
    1.0631   -1.0381    4.0508 H   0  0  0  0  0  0  0  0  0  0  0  0
   -0.9735   -5.5367    0.3598 H   0  0  0  0  0  0  0  0  0  0  0  0
   -2.3960   -5.6376    1.4521 H   0  0  0  0  0  0  0  0  0  0  0  0
   -2.3033   -4.3338    0.2412 H   0  0  0  0  0  0  0  0  0  0  0  0
    2.1317    1.9782    3.5678 H   0  0  0  0  0  0  0  0  0  0  0  0
  1  2  2  0  0  0  0
  1  4  1  0  0  0  0
  2  6  1  0  0  0  0
  3  4  2  0  0  0  0
  3  5  1  0  0  0  0
  4  7  1  0  0  0  0
  5  6  2  0  0  0  0
  5  9  1  0  0  0  0
  6 11  1  0  0  0  0
  7 12  2  0  0  0  0
  7 13  1  0  0  0  0
  8 11  1  0  0  0  0
  9 10  2  0  0  0  0
 10 11  1  0  0  0  0
  1 14  1  0  0  0  0
  2 15  1  0  0  0  0
  3 16  1  0  0  0  0
  8 17  1  0  0  0  0
  8 18  1  0  0  0  0
  8 19  1  0  0  0  0
 13 20  1  0  0  0  0
M  END
$$$$
frag.vs.464
  -OEChem-01121112263D

 26 27  0     0  0  0  0  0  0999 V2000
   -0.0019   -0.7252    0.8101 C   0  0  0  0  0  0  0  0  0  0  0  0
   -0.5949   -1.9764    0.6076 C   0  0  0  0  0  0  0  0  0  0  0  0
    0.6059   -1.2963    3.1005 C   0  0  0  0  0  0  0  0  0  0  0  0
    0.5879   -0.3895    2.0326 C   0  0  0  0  0  0  0  0  0  0  0  0
    0.0148   -2.5539    2.9104 C   0  0  0  0  0  0  0  0  0  0  0  0
   -0.5629   -2.8586    1.6855 C   0  0  0  0  0  0  0  0  0  0  0  0
    1.1934    0.9228    2.2013 C   0  0  0  0  0  0  0  0  0  0  0  0
    1.5041    2.9210    5.2683 C   0  0  0  0  0  0  0  0  0  0  0  0
   -1.7198   -4.9647    0.9175 C   0  0  0  0  0  0  0  0  0  0  0  0
    1.6819    2.6305    3.7933 C   0  0  0  0  0  0  0  0  0  0  0  0
   -0.1175   -3.6247    3.7544 N   0  0  0  0  0  0  0  0  0  0  0  0
   -0.7576   -4.5879    3.1003 N   0  0  0  0  0  0  0  0  0  0  0  0
   -1.0237   -4.1307    1.8656 N   0  0  0  0  0  0  0  0  0  0  0  0
    1.7108    1.5772    1.2869 O   0  0  0  0  0  0  0  0  0  0  0  0
    1.1192    1.3472    3.4996 O   0  0  0  0  0  0  0  0  0  0  0  0
   -0.0063   -0.0074   -0.0079 H   0  0  0  0  0  0  0  0  0  0  0  0
   -1.0526   -2.2384   -0.3393 H   0  0  0  0  0  0  0  0  0  0  0  0
    1.0631   -1.0381    4.0508 H   0  0  0  0  0  0  0  0  0  0  0  0
    0.4445    2.9345    5.5384 H   0  0  0  0  0  0  0  0  0  0  0  0
    2.0140    2.1653    5.8748 H   0  0  0  0  0  0  0  0  0  0  0  0
    1.9470    3.8885    5.5271 H   0  0  0  0  0  0  0  0  0  0  0  0
   -0.9735   -5.5367    0.3598 H   0  0  0  0  0  0  0  0  0  0  0  0
   -2.3960   -5.6376    1.4521 H   0  0  0  0  0  0  0  0  0  0  0  0
   -2.3033   -4.3338    0.2412 H   0  0  0  0  0  0  0  0  0  0  0  0
    2.7437    2.6184    3.5298 H   0  0  0  0  0  0  0  0  0  0  0  0
    1.1712    3.3860    3.1888 H   0  0  0  0  0  0  0  0  0  0  0  0
  1  2  2  0  0  0  0
  1  4  1  0  0  0  0
  2  6  1  0  0  0  0
  3  4  2  0  0  0  0
  3  5  1  0  0  0  0
  4  7  1  0  0  0  0
  5  6  2  0  0  0  0
  5 11  1  0  0  0  0
  6 13  1  0  0  0  0
  7 14  2  0  0  0  0
  7 15  1  0  0  0  0
  8 10  1  0  0  0  0
  9 13  1  0  0  0  0
 10 15  1  0  0  0  0
 11 12  2  0  0  0  0
 12 13  1  0  0  0  0
  1 16  1  0  0  0  0
  2 17  1  0  0  0  0
  3 18  1  0  0  0  0
  8 19  1  0  0  0  0
  8 20  1  0  0  0  0
  8 21  1  0  0  0  0
  9 22  1  0  0  0  0
  9 23  1  0  0  0  0
  9 24  1  0  0  0  0
 10 25  1  0  0  0  0
 10 26  1  0  0  0  0
M  END
$$$$
frag.vs.465
  -OEChem-01121112263D

 21 22  0     0  0  0  0  0  0999 V2000
   -0.0019   -0.7252    0.8101 C   0  0  0  0  0  0  0  0  0  0  0  0
   -0.5949   -1.9764    0.6076 C   0  0  0  0  0  0  0  0  0  0  0  0
    0.6059   -1.2963    3.1005 C   0  0  0  0  0  0  0  0  0  0  0  0
    0.5879   -0.3895    2.0326 C   0  0  0  0  0  0  0  0  0  0  0  0
    0.0148   -2.5539    2.9104 C   0  0  0  0  0  0  0  0  0  0  0  0
   -0.5629   -2.8586    1.6855 C   0  0  0  0  0  0  0  0  0  0  0  0
   -1.7162   -4.9660    0.9158 C   0  0  0  0  0  0  0  0  0  0  0  0
    1.2100    0.9571    2.2038 C   0  0  0  0  0  0  0  0  0  0  0  0
   -0.1175   -3.6247    3.7544 N   0  0  0  0  0  0  0  0  0  0  0  0
   -0.7576   -4.5879    3.1003 N   0  0  0  0  0  0  0  0  0  0  0  0
   -1.0237   -4.1307    1.8656 N   0  0  0  0  0  0  0  0  0  0  0  0
    2.4538    0.9917    1.5161 O   0  0  0  0  0  0  0  0  0  0  0  0
   -0.0050   -0.0064   -0.0066 H   0  0  0  0  0  0  0  0  0  0  0  0
   -1.0527   -2.2390   -0.3391 H   0  0  0  0  0  0  0  0  0  0  0  0
    1.0639   -1.0373    4.0501 H   0  0  0  0  0  0  0  0  0  0  0  0
   -0.9677   -5.5382    0.3613 H   0  0  0  0  0  0  0  0  0  0  0  0
   -2.3940   -5.6386    1.4488 H   0  0  0  0  0  0  0  0  0  0  0  0
   -2.2975   -4.3359    0.2369 H   0  0  0  0  0  0  0  0  0  0  0  0
    0.5638    1.7491    1.8029 H   0  0  0  0  0  0  0  0  0  0  0  0
    1.3854    1.1792    3.2646 H   0  0  0  0  0  0  0  0  0  0  0  0
    2.8236    1.8790    1.6514 H   0  0  0  0  0  0  0  0  0  0  0  0
  1  2  2  0  0  0  0
  1  4  1  0  0  0  0
  2  6  1  0  0  0  0
  3  4  2  0  0  0  0
  3  5  1  0  0  0  0
  4  8  1  0  0  0  0
  5  6  2  0  0  0  0
  5  9  1  0  0  0  0
  6 11  1  0  0  0  0
  7 11  1  0  0  0  0
  8 12  1  0  0  0  0
  9 10  2  0  0  0  0
 10 11  1  0  0  0  0
  1 13  1  0  0  0  0
  2 14  1  0  0  0  0
  3 15  1  0  0  0  0
  7 16  1  0  0  0  0
  7 17  1  0  0  0  0
  7 18  1  0  0  0  0
  8 19  1  0  0  0  0
  8 20  1  0  0  0  0
 12 21  1  0  0  0  0
M  END
$$$$
frag.vs.466
  -OEChem-01121112263D

 16 17  0     0  0  0  0  0  0999 V2000
    0.3748   -0.9073   -0.4667 C   0  0  0  0  0  0  0  0  0  0  0  0
   -0.2490   -2.1277   -0.1938 C   0  0  0  0  0  0  0  0  0  0  0  0
    1.9690   -1.9905   -1.9393 C   0  0  0  0  0  0  0  0  0  0  0  0
    1.4678   -0.8373   -1.3264 C   0  0  0  0  0  0  0  0  0  0  0  0
    1.3582   -3.2352   -1.6816 C   0  0  0  0  0  0  0  0  0  0  0  0
    0.2624   -3.2742   -0.8141 C   0  0  0  0  0  0  0  0  0  0  0  0
    2.0966    0.4475   -1.5913 C   0  0  0  0  0  0  0  0  0  0  0  0
    1.7304   -4.4687   -2.2065 N   0  0  0  0  0  0  0  0  0  0  0  0
    0.9563   -5.4469   -1.7697 N   0  0  0  0  0  0  0  0  0  0  0  0
    1.7445    1.5293   -1.1104 O   0  0  0  0  0  0  0  0  0  0  0  0
    3.1487    0.3446   -2.4487 O   0  0  0  0  0  0  0  0  0  0  0  0
   -0.2337   -4.9203   -0.7224 S   0  0  0  0  0  0  0  0  0  0  0  0
   -0.0089   -0.0058    0.0062 H   0  0  0  0  0  0  0  0  0  0  0  0
   -1.1007   -2.1781    0.4768 H   0  0  0  0  0  0  0  0  0  0  0  0
    2.8222   -1.9354   -2.6103 H   0  0  0  0  0  0  0  0  0  0  0  0
    3.5804    1.2059   -2.6332 H   0  0  0  0  0  0  0  0  0  0  0  0
  1  2  1  0  0  0  0
  1  4  2  0  0  0  0
  2  6  2  0  0  0  0
  3  4  1  0  0  0  0
  3  5  2  0  0  0  0
  4  7  1  0  0  0  0
  5  6  1  0  0  0  0
  5  8  1  0  0  0  0
  6 12  1  0  0  0  0
  7 10  2  0  0  0  0
  7 11  1  0  0  0  0
  8  9  2  0  0  0  0
  9 12  1  0  0  0  0
  1 13  1  0  0  0  0
  2 14  1  0  0  0  0
  3 15  1  0  0  0  0
 11 16  1  0  0  0  0
M  END
$$$$
frag.vs.467
  -OEChem-01121112263D

 19 20  0     0  0  0  0  0  0999 V2000
    0.3748   -0.9073   -0.4667 C   0  0  0  0  0  0  0  0  0  0  0  0
   -0.2490   -2.1277   -0.1938 C   0  0  0  0  0  0  0  0  0  0  0  0
    1.9690   -1.9905   -1.9393 C   0  0  0  0  0  0  0  0  0  0  0  0
    1.4678   -0.8373   -1.3264 C   0  0  0  0  0  0  0  0  0  0  0  0
    1.3582   -3.2352   -1.6816 C   0  0  0  0  0  0  0  0  0  0  0  0
    0.2624   -3.2742   -0.8141 C   0  0  0  0  0  0  0  0  0  0  0  0
    2.0966    0.4475   -1.5913 C   0  0  0  0  0  0  0  0  0  0  0  0
    4.1635    1.5071   -2.1352 C   0  0  0  0  0  0  0  0  0  0  0  0
    1.7304   -4.4687   -2.2065 N   0  0  0  0  0  0  0  0  0  0  0  0
    0.9563   -5.4469   -1.7697 N   0  0  0  0  0  0  0  0  0  0  0  0
    1.5027    1.5336   -1.5767 O   0  0  0  0  0  0  0  0  0  0  0  0
    3.4311    0.3084   -1.8586 O   0  0  0  0  0  0  0  0  0  0  0  0
   -0.2337   -4.9203   -0.7224 S   0  0  0  0  0  0  0  0  0  0  0  0
   -0.0089   -0.0058    0.0062 H   0  0  0  0  0  0  0  0  0  0  0  0
   -1.1007   -2.1781    0.4768 H   0  0  0  0  0  0  0  0  0  0  0  0
    2.8222   -1.9354   -2.6103 H   0  0  0  0  0  0  0  0  0  0  0  0
    5.2096    1.2589   -2.3305 H   0  0  0  0  0  0  0  0  0  0  0  0
    4.0921    2.1842   -1.2803 H   0  0  0  0  0  0  0  0  0  0  0  0
    3.7352    1.9899   -3.0167 H   0  0  0  0  0  0  0  0  0  0  0  0
  1  2  2  0  0  0  0
  1  4  1  0  0  0  0
  2  6  1  0  0  0  0
  3  4  2  0  0  0  0
  3  5  1  0  0  0  0
  4  7  1  0  0  0  0
  5  6  2  0  0  0  0
  5  9  1  0  0  0  0
  6 13  1  0  0  0  0
  7 11  2  0  0  0  0
  7 12  1  0  0  0  0
  8 12  1  0  0  0  0
  9 10  2  0  0  0  0
 10 13  1  0  0  0  0
  1 14  1  0  0  0  0
  2 15  1  0  0  0  0
  3 16  1  0  0  0  0
  8 17  1  0  0  0  0
  8 18  1  0  0  0  0
  8 19  1  0  0  0  0
M  END
$$$$
frag.vs.468
  -OEChem-01121112263D

 22 23  0     0  0  0  0  0  0999 V2000
   -0.0019   -0.7252    0.8101 C   0  0  0  0  0  0  0  0  0  0  0  0
   -0.5949   -1.9764    0.6076 C   0  0  0  0  0  0  0  0  0  0  0  0
    0.6059   -1.2963    3.1005 C   0  0  0  0  0  0  0  0  0  0  0  0
    0.5879   -0.3895    2.0326 C   0  0  0  0  0  0  0  0  0  0  0  0
    0.0148   -2.5539    2.9104 C   0  0  0  0  0  0  0  0  0  0  0  0
   -0.5629   -2.8586    1.6855 C   0  0  0  0  0  0  0  0  0  0  0  0
   -1.7162   -4.9660    0.9158 C   0  0  0  0  0  0  0  0  0  0  0  0
    1.2100    0.9571    2.2038 C   0  0  0  0  0  0  0  0  0  0  0  0
   -0.1175   -3.6247    3.7544 N   0  0  0  0  0  0  0  0  0  0  0  0
   -0.7576   -4.5879    3.1003 N   0  0  0  0  0  0  0  0  0  0  0  0
   -1.0237   -4.1307    1.8656 N   0  0  0  0  0  0  0  0  0  0  0  0
    2.4819    1.0598    1.5361 N   0  0  0  0  0  0  0  0  0  0  0  0
   -0.0050   -0.0064   -0.0066 H   0  0  0  0  0  0  0  0  0  0  0  0
   -1.0527   -2.2390   -0.3391 H   0  0  0  0  0  0  0  0  0  0  0  0
    1.0639   -1.0373    4.0501 H   0  0  0  0  0  0  0  0  0  0  0  0
   -0.9677   -5.5382    0.3613 H   0  0  0  0  0  0  0  0  0  0  0  0
   -2.3940   -5.6386    1.4488 H   0  0  0  0  0  0  0  0  0  0  0  0
   -2.2975   -4.3359    0.2369 H   0  0  0  0  0  0  0  0  0  0  0  0
    0.5599    1.7457    1.8013 H   0  0  0  0  0  0  0  0  0  0  0  0
    1.3753    1.1908    3.2638 H   0  0  0  0  0  0  0  0  0  0  0  0
    3.1599    1.7223    1.8745 H   0  0  0  0  0  0  0  0  0  0  0  0
    2.5976    0.6263    0.6350 H   0  0  0  0  0  0  0  0  0  0  0  0
  1  2  2  0  0  0  0
  1  4  1  0  0  0  0
  2  6  1  0  0  0  0
  3  4  2  0  0  0  0
  3  5  1  0  0  0  0
  4  8  1  0  0  0  0
  5  6  2  0  0  0  0
  5  9  1  0  0  0  0
  6 11  1  0  0  0  0
  7 11  1  0  0  0  0
  8 12  1  0  0  0  0
  9 10  2  0  0  0  0
 10 11  1  0  0  0  0
  1 13  1  0  0  0  0
  2 14  1  0  0  0  0
  3 15  1  0  0  0  0
  7 16  1  0  0  0  0
  7 17  1  0  0  0  0
  7 18  1  0  0  0  0
  8 19  1  0  0  0  0
  8 20  1  0  0  0  0
 12 21  1  0  0  0  0
 12 22  1  0  0  0  0
M  END
$$$$
frag.vs.469
  -OEChem-01121112263D

 16 17  0     0  0  0  0  0  0999 V2000
    1.8307   -0.8841   -0.7173 C   0  0  0  0  0  0  0  0  0  0  0  0
    0.4692   -0.9241   -0.3348 C   0  0  0  0  0  0  0  0  0  0  0  0
    2.5401   -2.0115   -1.1649 C   0  0  0  0  0  0  0  0  0  0  0  0
   -0.3069   -2.0952   -0.3649 C   0  0  0  0  0  0  0  0  0  0  0  0
    1.8081   -3.2221   -1.2164 C   0  0  0  0  0  0  0  0  0  0  0  0
    0.3560   -3.2648   -0.8082 C   0  0  0  0  0  0  0  0  0  0  0  0
   -1.7007   -2.0919    0.0364 C   0  0  0  0  0  0  0  0  0  0  0  0
    2.2784   -4.4166   -1.6099 N   0  0  0  0  0  0  0  0  0  0  0  0
   -0.1844   -4.4892   -0.9174 N   0  0  0  0  0  0  0  0  0  0  0  0
   -2.4513   -3.0759    0.0395 O   0  0  0  0  0  0  0  0  0  0  0  0
   -2.1308   -0.8594    0.4279 O   0  0  0  0  0  0  0  0  0  0  0  0
    1.0170   -5.4887   -1.4786 S   0  0  0  0  0  0  0  0  0  0  0  0
    2.3546    0.0692   -0.6617 H   0  0  0  0  0  0  0  0  0  0  0  0
    0.0091    0.0062   -0.0014 H   0  0  0  0  0  0  0  0  0  0  0  0
    3.5835   -1.9489   -1.4512 H   0  0  0  0  0  0  0  0  0  0  0  0
   -3.0725   -0.8468    0.7023 H   0  0  0  0  0  0  0  0  0  0  0  0
  1  2  1  0  0  0  0
  1  3  2  0  0  0  0
  2  4  2  0  0  0  0
  3  5  1  0  0  0  0
  4  6  1  0  0  0  0
  4  7  1  0  0  0  0
  5  6  1  0  0  0  0
  5  8  2  0  0  0  0
  6  9  2  0  0  0  0
  7 10  2  0  0  0  0
  7 11  1  0  0  0  0
  8 12  1  0  0  0  0
  9 12  1  0  0  0  0
  1 13  1  0  0  0  0
  2 14  1  0  0  0  0
  3 15  1  0  0  0  0
 11 16  1  0  0  0  0
M  END
$$$$
frag.vs.470
  -OEChem-01121112263D

 19 20  0     0  0  0  0  0  0999 V2000
    1.8851   -1.0363   -0.1124 C   0  0  0  0  0  0  0  0  0  0  0  0
    0.8066   -0.4630    0.5610 C   0  0  0  0  0  0  0  0  0  0  0  0
    2.9210   -1.6309    0.6081 C   0  0  0  0  0  0  0  0  0  0  0  0
    0.7638   -0.4841    1.9551 C   0  0  0  0  0  0  0  0  0  0  0  0
    2.8783   -1.6520    2.0022 C   0  0  0  0  0  0  0  0  0  0  0  0
    1.7997   -1.0786    2.6757 C   0  0  0  0  0  0  0  0  0  0  0  0
    1.7549   -1.1012    4.1171 C   0  0  0  0  0  0  0  0  0  0  0  0
    2.0796   -1.5795    6.2150 C   0  0  0  0  0  0  0  0  0  0  0  0
    2.4225   -1.9064    4.9140 N   0  0  0  0  0  0  0  0  0  0  0  0
    1.2112   -0.6000    6.4663 N   0  0  0  0  0  0  0  0  0  0  0  0
    2.6794   -2.3148    7.1919 N   0  0  0  0  0  0  0  0  0  0  0  0
    0.7544   -0.0002    4.9722 S   0  0  0  0  0  0  0  0  0  0  0  0
    1.9181   -1.0204   -1.1979 H   0  0  0  0  0  0  0  0  0  0  0  0
    0.0002    0.0001   -0.0003 H   0  0  0  0  0  0  0  0  0  0  0  0
    3.7604   -2.0783    0.0837 H   0  0  0  0  0  0  0  0  0  0  0  0
   -0.0851   -0.0353    2.4653 H   0  0  0  0  0  0  0  0  0  0  0  0
    3.6940   -2.1183    2.5495 H   0  0  0  0  0  0  0  0  0  0  0  0
    3.3065   -3.0934    6.9685 H   0  0  0  0  0  0  0  0  0  0  0  0
    2.4528   -2.1777    8.1816 H   0  0  0  0  0  0  0  0  0  0  0  0
  1  2  1  0  0  0  0
  1  3  2  0  0  0  0
  2  4  2  0  0  0  0
  3  5  1  0  0  0  0
  4  6  1  0  0  0  0
  5  6  2  0  0  0  0
  6  7  1  0  0  0  0
  7  9  2  0  0  0  0
  7 12  1  0  0  0  0
  8  9  1  0  0  0  0
  8 10  2  0  0  0  0
  8 11  1  0  0  0  0
 10 12  1  0  0  0  0
  1 13  1  0  0  0  0
  2 14  1  0  0  0  0
  3 15  1  0  0  0  0
  4 16  1  0  0  0  0
  5 17  1  0  0  0  0
 11 18  1  0  0  0  0
 11 19  1  0  0  0  0
M  END
$$$$
frag.vs.471
  -OEChem-01121112263D

 32 33  0     0  0  0  0  0  0999 V2000
   -4.8296   -0.2131    3.0504 C   0  0  0  0  0  0  0  0  0  0  0  0
   -5.6788    0.1558    2.0071 C   0  0  0  0  0  0  0  0  0  0  0  0
   -3.7805    0.6261    3.4258 C   0  0  0  0  0  0  0  0  0  0  0  0
   -4.4297    2.2030    1.7144 C   0  0  0  0  0  0  0  0  0  0  0  0
   -5.4788    1.3639    1.3391 C   0  0  0  0  0  0  0  0  0  0  0  0
   -3.5805    1.8341    2.7578 C   0  0  0  0  0  0  0  0  0  0  0  0
    0.6399    0.8237    0.3391 C   0  0  0  0  0  0  0  0  0  0  0  0
   -0.0042    2.1570   -0.0303 C   0  0  0  0  0  0  0  0  0  0  0  0
    0.8466    0.7228    1.8479 C   0  0  0  0  0  0  0  0  0  0  0  0
   -1.2931    2.3865    0.7521 C   0  0  0  0  0  0  0  0  0  0  0  0
   -0.4546    0.9714    2.6037 C   0  0  0  0  0  0  0  0  0  0  0  0
   -1.0128    2.3004    2.2158 N   0  0  0  0  0  0  0  0  0  0  0  0
   -6.3370    1.7363    0.2838 N   0  0  0  0  0  0  0  0  0  0  0  0
   -2.5956    4.2422    2.8235 O   0  0  0  0  0  0  0  0  0  0  0  0
   -1.9166    2.6000    4.6096 O   0  0  0  0  0  0  0  0  0  0  0  0
   -2.2551    2.8976    3.2348 S   0  0  0  0  0  0  0  0  0  0  0  0
   -4.9853   -1.1536    3.5707 H   0  0  0  0  0  0  0  0  0  0  0  0
   -6.4928   -0.5060    1.7228 H   0  0  0  0  0  0  0  0  0  0  0  0
   -3.1255    0.3294    4.2406 H   0  0  0  0  0  0  0  0  0  0  0  0
   -4.2734    3.1452    1.1934 H   0  0  0  0  0  0  0  0  0  0  0  0
    0.0003   -0.0002   -0.0003 H   0  0  0  0  0  0  0  0  0  0  0  0
    1.6010    0.7190   -0.1763 H   0  0  0  0  0  0  0  0  0  0  0  0
    0.7022    2.9698    0.1808 H   0  0  0  0  0  0  0  0  0  0  0  0
   -0.2137    2.1826   -1.1054 H   0  0  0  0  0  0  0  0  0  0  0  0
    1.2411   -0.2670    2.1030 H   0  0  0  0  0  0  0  0  0  0  0  0
    1.5969    1.4605    2.1587 H   0  0  0  0  0  0  0  0  0  0  0  0
   -1.6823    3.3822    0.5134 H   0  0  0  0  0  0  0  0  0  0  0  0
   -2.0507    1.6436    0.4776 H   0  0  0  0  0  0  0  0  0  0  0  0
   -1.1864    0.1854    2.3847 H   0  0  0  0  0  0  0  0  0  0  0  0
   -0.2487    0.9628    3.6795 H   0  0  0  0  0  0  0  0  0  0  0  0
   -7.0556    1.1046   -0.0069 H   0  0  0  0  0  0  0  0  0  0  0  0
   -6.1547    2.5821   -0.2178 H   0  0  0  0  0  0  0  0  0  0  0  0
  1  2  1  0  0  0  0
  1  3  2  0  0  0  0
  2  5  2  0  0  0  0
  3  6  1  0  0  0  0
  4  5  1  0  0  0  0
  4  6  2  0  0  0  0
  5 13  1  0  0  0  0
  6 16  1  0  0  0  0
  7  8  1  0  0  0  0
  7  9  1  0  0  0  0
  8 10  1  0  0  0  0
  9 11  1  0  0  0  0
 10 12  1  0  0  0  0
 11 12  1  0  0  0  0
 12 16  1  0  0  0  0
 14 16  2  0  0  0  0
 15 16  2  0  0  0  0
  1 17  1  0  0  0  0
  2 18  1  0  0  0  0
  3 19  1  0  0  0  0
  4 20  1  0  0  0  0
  7 21  1  0  0  0  0
  7 22  1  0  0  0  0
  8 23  1  0  0  0  0
  8 24  1  0  0  0  0
  9 25  1  0  0  0  0
  9 26  1  0  0  0  0
 10 27  1  0  0  0  0
 10 28  1  0  0  0  0
 11 29  1  0  0  0  0
 11 30  1  0  0  0  0
 13 31  1  0  0  0  0
 13 32  1  0  0  0  0
M  END
$$$$
frag.vs.472
  -OEChem-01121112263D

 22 22  0     0  0  0  0  0  0999 V2000
    2.5049    0.0632    3.7469 C   0  0  0  0  0  0  0  0  0  0  0  0
    2.8278    0.8409    4.8311 C   0  0  0  0  0  0  0  0  0  0  0  0
    2.4708   -1.1769    5.4452 C   0  0  0  0  0  0  0  0  0  0  0  0
    3.1656    2.2543    5.0295 C   0  0  0  0  0  0  0  0  0  0  0  0
    2.3703   -2.2644    6.4306 C   0  0  0  0  0  0  0  0  0  0  0  0
    1.0603    1.5598    0.6327 C   0  0  0  0  0  0  0  0  0  0  0  0
    2.3857    0.4585    2.3034 C   0  0  0  0  0  0  0  0  0  0  0  0
    2.2775   -1.2289    4.1466 N   0  0  0  0  0  0  0  0  0  0  0  0
    1.1578    1.1965    2.0400 N   0  0  0  0  0  0  0  0  0  0  0  0
    2.8086    0.0464    5.9374 O   0  0  0  0  0  0  0  0  0  0  0  0
    2.2642    2.8643    5.2245 H   0  0  0  0  0  0  0  0  0  0  0  0
    3.8557    2.4089    5.8811 H   0  0  0  0  0  0  0  0  0  0  0  0
    3.6752    2.6949    4.1510 H   0  0  0  0  0  0  0  0  0  0  0  0
    3.3378   -2.7802    6.5607 H   0  0  0  0  0  0  0  0  0  0  0  0
    2.0530   -1.9006    7.4250 H   0  0  0  0  0  0  0  0  0  0  0  0
    1.6253   -3.0270    6.1382 H   0  0  0  0  0  0  0  0  0  0  0  0
    1.0699    0.6607    0.0111 H   0  0  0  0  0  0  0  0  0  0  0  0
    1.9036    2.1943    0.3469 H   0  0  0  0  0  0  0  0  0  0  0  0
    0.1317    2.1062    0.4469 H   0  0  0  0  0  0  0  0  0  0  0  0
    3.2295    1.0903    2.0052 H   0  0  0  0  0  0  0  0  0  0  0  0
    2.3930   -0.4223    1.6528 H   0  0  0  0  0  0  0  0  0  0  0  0
    1.1476    2.0441    2.6067 H   0  0  0  0  0  0  0  0  0  0  0  0
  1  2  2  0  0  0  0
  1  7  1  0  0  0  0
  1  8  1  0  0  0  0
  2  4  1  0  0  0  0
  2 10  1  0  0  0  0
  3  5  1  0  0  0  0
  3  8  2  0  0  0  0
  3 10  1  0  0  0  0
  6  9  1  0  0  0  0
  7  9  1  0  0  0  0
  4 11  1  0  0  0  0
  4 12  1  0  0  0  0
  4 13  1  0  0  0  0
  5 14  1  0  0  0  0
  5 15  1  0  0  0  0
  5 16  1  0  0  0  0
  6 17  1  0  0  0  0
  6 18  1  0  0  0  0
  6 19  1  0  0  0  0
  7 20  1  0  0  0  0
  7 21  1  0  0  0  0
  9 22  1  0  0  0  0
M  END
$$$$
frag.vs.473
  -OEChem-01121112263D

 19 20  0     0  0  0  0  0  0999 V2000
   -0.9828    1.8432   -0.5132 C   0  0  0  0  0  0  0  0  0  0  0  0
   -0.9455    0.4696   -0.2604 C   0  0  0  0  0  0  0  0  0  0  0  0
   -2.1827    2.4837   -0.8519 C   0  0  0  0  0  0  0  0  0  0  0  0
   -2.1012   -0.3134   -0.3361 C   0  0  0  0  0  0  0  0  0  0  0  0
   -4.7209    1.9732   -1.2341 C   0  0  0  0  0  0  0  0  0  0  0  0
   -3.3574    1.7156   -0.9335 C   0  0  0  0  0  0  0  0  0  0  0  0
   -3.2786    0.3511   -0.6747 C   0  0  0  0  0  0  0  0  0  0  0  0
   -5.3737    0.7659   -1.1396 C   0  0  0  0  0  0  0  0  0  0  0  0
   -6.7749    0.3663   -1.3290 C   0  0  0  0  0  0  0  0  0  0  0  0
   -4.5075   -0.2244   -0.8009 O   0  0  0  0  0  0  0  0  0  0  0  0
   -6.9294   -0.3192   -2.5743 O   0  0  0  0  0  0  0  0  0  0  0  0
   -0.0675    2.4256   -0.4463 H   0  0  0  0  0  0  0  0  0  0  0  0
   -0.0001    0.0001    0.0003 H   0  0  0  0  0  0  0  0  0  0  0  0
   -2.1963    3.5519   -1.0459 H   0  0  0  0  0  0  0  0  0  0  0  0
   -2.0800   -1.3791   -0.1415 H   0  0  0  0  0  0  0  0  0  0  0  0
   -5.1696    2.9238   -1.4875 H   0  0  0  0  0  0  0  0  0  0  0  0
   -7.1343   -0.3081   -0.5283 H   0  0  0  0  0  0  0  0  0  0  0  0
   -7.4610    1.2346   -1.3345 H   0  0  0  0  0  0  0  0  0  0  0  0
   -7.8665   -0.5547   -2.6402 H   0  0  0  0  0  0  0  0  0  0  0  0
  1  2  1  0  0  0  0
  1  3  2  0  0  0  0
  2  4  2  0  0  0  0
  3  6  1  0  0  0  0
  4  7  1  0  0  0  0
  5  6  1  0  0  0  0
  5  8  2  0  0  0  0
  6  7  2  0  0  0  0
  7 10  1  0  0  0  0
  8  9  1  0  0  0  0
  8 10  1  0  0  0  0
  9 11  1  0  0  0  0
  1 12  1  0  0  0  0
  2 13  1  0  0  0  0
  3 14  1  0  0  0  0
  4 15  1  0  0  0  0
  5 16  1  0  0  0  0
  9 17  1  0  0  0  0
  9 18  1  0  0  0  0
 11 19  1  0  0  0  0
M  END
$$$$
frag.vs.474
  -OEChem-01121112263D

 22 23  0     0  0  0  0  0  0999 V2000
   -0.6764   -4.7624   -4.6770 C   0  0  0  0  0  0  0  0  0  0  0  0
   -0.9619   -3.6319   -3.8748 C   0  0  0  0  0  0  0  0  0  0  0  0
   -0.2303   -1.3824   -1.7538 C   0  0  0  0  0  0  0  0  0  0  0  0
    0.3927   -5.3920   -4.0831 C   0  0  0  0  0  0  0  0  0  0  0  0
    0.0707   -2.7221   -1.7863 C   0  0  0  0  0  0  0  0  0  0  0  0
   -0.0471   -3.6514   -2.8477 C   0  0  0  0  0  0  0  0  0  0  0  0
    0.0890   -0.9817   -0.4426 C   0  0  0  0  0  0  0  0  0  0  0  0
   -0.0374    0.3306    0.1243 C   0  0  0  0  0  0  0  0  0  0  0  0
    0.9816   -4.3212   -0.0689 C   0  0  0  0  0  0  0  0  0  0  0  0
    0.5568   -1.9856    0.3039 N   0  0  0  0  0  0  0  0  0  0  0  0
    0.5336   -3.0305   -0.5409 N   0  0  0  0  0  0  0  0  0  0  0  0
    0.2534    0.6585    1.2914 O   0  0  0  0  0  0  0  0  0  0  0  0
    0.7822   -4.7212   -2.9674 O   0  0  0  0  0  0  0  0  0  0  0  0
   -0.5281    1.2548   -0.7581 O   0  0  0  0  0  0  0  0  0  0  0  0
   -1.1862   -5.0784   -5.5755 H   0  0  0  0  0  0  0  0  0  0  0  0
   -1.7405   -2.8984   -4.0336 H   0  0  0  0  0  0  0  0  0  0  0  0
   -0.6239   -0.7809   -2.5613 H   0  0  0  0  0  0  0  0  0  0  0  0
    0.9627   -6.2792   -4.3171 H   0  0  0  0  0  0  0  0  0  0  0  0
    2.0547   -4.3975   -0.2631 H   0  0  0  0  0  0  0  0  0  0  0  0
    0.7799   -4.4071    1.0025 H   0  0  0  0  0  0  0  0  0  0  0  0
    0.4389   -5.1084   -0.5997 H   0  0  0  0  0  0  0  0  0  0  0  0
   -0.6175    2.1557   -0.3802 H   0  0  0  0  0  0  0  0  0  0  0  0
  1  2  1  0  0  0  0
  1  4  2  0  0  0  0
  2  6  2  0  0  0  0
  3  5  2  0  0  0  0
  3  7  1  0  0  0  0
  4 13  1  0  0  0  0
  5  6  1  0  0  0  0
  5 11  1  0  0  0  0
  6 13  1  0  0  0  0
  7  8  1  0  0  0  0
  7 10  2  0  0  0  0
  8 12  2  0  0  0  0
  8 14  1  0  0  0  0
  9 11  1  0  0  0  0
 10 11  1  0  0  0  0
  1 15  1  0  0  0  0
  2 16  1  0  0  0  0
  3 17  1  0  0  0  0
  4 18  1  0  0  0  0
  9 19  1  0  0  0  0
  9 20  1  0  0  0  0
  9 21  1  0  0  0  0
 14 22  1  0  0  0  0
M  END
$$$$
frag.vs.475
  -OEChem-01121112263D

 28 29  0     0  0  0  0  0  0999 V2000
   -0.6764   -4.7624   -4.6770 C   0  0  0  0  0  0  0  0  0  0  0  0
   -0.9619   -3.6319   -3.8748 C   0  0  0  0  0  0  0  0  0  0  0  0
   -0.2303   -1.3824   -1.7538 C   0  0  0  0  0  0  0  0  0  0  0  0
    0.3927   -5.3920   -4.0831 C   0  0  0  0  0  0  0  0  0  0  0  0
    0.0707   -2.7221   -1.7863 C   0  0  0  0  0  0  0  0  0  0  0  0
   -0.0471   -3.6514   -2.8477 C   0  0  0  0  0  0  0  0  0  0  0  0
    0.0890   -0.9817   -0.4426 C   0  0  0  0  0  0  0  0  0  0  0  0
   -0.0374    0.3306    0.1243 C   0  0  0  0  0  0  0  0  0  0  0  0
   -1.2526    3.4246   -1.4688 C   0  0  0  0  0  0  0  0  0  0  0  0
    0.9816   -4.3212   -0.0689 C   0  0  0  0  0  0  0  0  0  0  0  0
   -0.7027    2.5929   -0.3297 C   0  0  0  0  0  0  0  0  0  0  0  0
    0.5568   -1.9856    0.3039 N   0  0  0  0  0  0  0  0  0  0  0  0
    0.5336   -3.0305   -0.5409 N   0  0  0  0  0  0  0  0  0  0  0  0
    0.2599    0.6392    1.2977 O   0  0  0  0  0  0  0  0  0  0  0  0
    0.7822   -4.7212   -2.9674 O   0  0  0  0  0  0  0  0  0  0  0  0
   -0.5317    1.2439   -0.7775 O   0  0  0  0  0  0  0  0  0  0  0  0
   -1.1862   -5.0784   -5.5755 H   0  0  0  0  0  0  0  0  0  0  0  0
   -1.7405   -2.8984   -4.0336 H   0  0  0  0  0  0  0  0  0  0  0  0
   -0.6239   -0.7809   -2.5613 H   0  0  0  0  0  0  0  0  0  0  0  0
    0.9627   -6.2792   -4.3171 H   0  0  0  0  0  0  0  0  0  0  0  0
   -0.5657    3.4238   -2.3197 H   0  0  0  0  0  0  0  0  0  0  0  0
   -2.2224    3.0364   -1.7970 H   0  0  0  0  0  0  0  0  0  0  0  0
   -1.4159    4.4587   -1.1477 H   0  0  0  0  0  0  0  0  0  0  0  0
    2.0547   -4.3975   -0.2631 H   0  0  0  0  0  0  0  0  0  0  0  0
    0.7799   -4.4071    1.0025 H   0  0  0  0  0  0  0  0  0  0  0  0
    0.4389   -5.1084   -0.5997 H   0  0  0  0  0  0  0  0  0  0  0  0
   -1.3944    2.5979    0.5179 H   0  0  0  0  0  0  0  0  0  0  0  0
    0.2667    2.9816   -0.0036 H   0  0  0  0  0  0  0  0  0  0  0  0
  1  2  1  0  0  0  0
  1  4  2  0  0  0  0
  2  6  2  0  0  0  0
  3  5  2  0  0  0  0
  3  7  1  0  0  0  0
  4 15  1  0  0  0  0
  5  6  1  0  0  0  0
  5 13  1  0  0  0  0
  6 15  1  0  0  0  0
  7  8  1  0  0  0  0
  7 12  2  0  0  0  0
  8 14  2  0  0  0  0
  8 16  1  0  0  0  0
  9 11  1  0  0  0  0
 10 13  1  0  0  0  0
 11 16  1  0  0  0  0
 12 13  1  0  0  0  0
  1 17  1  0  0  0  0
  2 18  1  0  0  0  0
  3 19  1  0  0  0  0
  4 20  1  0  0  0  0
  9 21  1  0  0  0  0
  9 22  1  0  0  0  0
  9 23  1  0  0  0  0
 10 24  1  0  0  0  0
 10 25  1  0  0  0  0
 10 26  1  0  0  0  0
 11 27  1  0  0  0  0
 11 28  1  0  0  0  0
M  END
$$$$
frag.vs.476
  -OEChem-01121112263D

 28 29  0     0  0  0  0  0  0999 V2000
   -0.0401    2.1481    1.4592 C   0  0  0  0  0  0  0  0  0  0  0  0
    0.2559    0.7664    1.3783 C   0  0  0  0  0  0  0  0  0  0  0  0
   -0.2303   -1.3824   -1.7538 C   0  0  0  0  0  0  0  0  0  0  0  0
   -0.5140    2.5104    0.2199 C   0  0  0  0  0  0  0  0  0  0  0  0
    0.0890   -0.9817   -0.4426 C   0  0  0  0  0  0  0  0  0  0  0  0
   -0.0585    0.3829    0.0953 C   0  0  0  0  0  0  0  0  0  0  0  0
    0.0707   -2.7221   -1.7863 C   0  0  0  0  0  0  0  0  0  0  0  0
   -0.0578   -3.6401   -2.8732 C   0  0  0  0  0  0  0  0  0  0  0  0
   -1.2838   -3.0144   -6.2972 C   0  0  0  0  0  0  0  0  0  0  0  0
    0.9796   -4.3237   -0.0769 C   0  0  0  0  0  0  0  0  0  0  0  0
   -0.7315   -3.8644   -5.1728 C   0  0  0  0  0  0  0  0  0  0  0  0
    0.5568   -1.9856    0.3039 N   0  0  0  0  0  0  0  0  0  0  0  0
    0.5336   -3.0305   -0.5409 N   0  0  0  0  0  0  0  0  0  0  0  0
    0.2371   -4.8572   -2.8344 O   0  0  0  0  0  0  0  0  0  0  0  0
   -0.5286    1.4401   -0.6173 O   0  0  0  0  0  0  0  0  0  0  0  0
   -0.5555   -3.0451   -4.0121 O   0  0  0  0  0  0  0  0  0  0  0  0
    0.0771    2.7984    2.3140 H   0  0  0  0  0  0  0  0  0  0  0  0
    0.6490    0.1365    2.1643 H   0  0  0  0  0  0  0  0  0  0  0  0
   -0.6239   -0.7848   -2.5642 H   0  0  0  0  0  0  0  0  0  0  0  0
   -0.8638    3.4400   -0.2043 H   0  0  0  0  0  0  0  0  0  0  0  0
   -2.2516   -2.5854   -6.0228 H   0  0  0  0  0  0  0  0  0  0  0  0
   -0.5928   -2.2008   -6.5413 H   0  0  0  0  0  0  0  0  0  0  0  0
   -1.4071   -3.6110   -7.2071 H   0  0  0  0  0  0  0  0  0  0  0  0
    2.0523   -4.4008   -0.2729 H   0  0  0  0  0  0  0  0  0  0  0  0
    0.7792   -4.4152    0.9942 H   0  0  0  0  0  0  0  0  0  0  0  0
    0.4349   -5.1070   -0.6114 H   0  0  0  0  0  0  0  0  0  0  0  0
    0.2363   -4.2904   -5.4536 H   0  0  0  0  0  0  0  0  0  0  0  0
   -1.4235   -4.6762   -4.9296 H   0  0  0  0  0  0  0  0  0  0  0  0
  1  2  1  0  0  0  0
  1  4  2  0  0  0  0
  2  6  2  0  0  0  0
  3  5  1  0  0  0  0
  3  7  2  0  0  0  0
  4 15  1  0  0  0  0
  5  6  1  0  0  0  0
  5 12  2  0  0  0  0
  6 15  1  0  0  0  0
  7  8  1  0  0  0  0
  7 13  1  0  0  0  0
  8 14  2  0  0  0  0
  8 16  1  0  0  0  0
  9 11  1  0  0  0  0
 10 13  1  0  0  0  0
 11 16  1  0  0  0  0
 12 13  1  0  0  0  0
  1 17  1  0  0  0  0
  2 18  1  0  0  0  0
  3 19  1  0  0  0  0
  4 20  1  0  0  0  0
  9 21  1  0  0  0  0
  9 22  1  0  0  0  0
  9 23  1  0  0  0  0
 10 24  1  0  0  0  0
 10 25  1  0  0  0  0
 10 26  1  0  0  0  0
 11 27  1  0  0  0  0
 11 28  1  0  0  0  0
M  END
$$$$
frag.vs.477
  -OEChem-01121112263D

 23 24  0     0  0  0  0  0  0999 V2000
   -6.7581   -1.0842    2.7111 C   0  0  0  0  0  0  0  0  0  0  0  0
   -5.5949   -0.5786    3.3392 C   0  0  0  0  0  0  0  0  0  0  0  0
   -2.0839   -1.2666    2.1175 C   0  0  0  0  0  0  0  0  0  0  0  0
   -6.3212   -1.8246    1.6373 C   0  0  0  0  0  0  0  0  0  0  0  0
   -4.5302   -1.0462    2.6046 C   0  0  0  0  0  0  0  0  0  0  0  0
   -3.1527   -0.8074    2.8406 C   0  0  0  0  0  0  0  0  0  0  0  0
   -0.9711   -0.7318    2.7894 C   0  0  0  0  0  0  0  0  0  0  0  0
    2.3822   -2.3664    2.4594 C   0  0  0  0  0  0  0  0  0  0  0  0
    0.4804   -0.9020    2.4454 C   0  0  0  0  0  0  0  0  0  0  0  0
   -1.3229    0.0029    3.8483 N   0  0  0  0  0  0  0  0  0  0  0  0
    0.9763   -2.2217    2.8120 N   0  0  0  0  0  0  0  0  0  0  0  0
   -4.9644   -1.8066    1.5654 O   0  0  0  0  0  0  0  0  0  0  0  0
   -2.7114   -0.0485    3.8762 O   0  0  0  0  0  0  0  0  0  0  0  0
   -7.7861   -0.9283    3.0046 H   0  0  0  0  0  0  0  0  0  0  0  0
   -5.5481    0.0491    4.2185 H   0  0  0  0  0  0  0  0  0  0  0  0
   -2.1017   -1.8926    1.2367 H   0  0  0  0  0  0  0  0  0  0  0  0
   -6.8217   -2.3959    0.8692 H   0  0  0  0  0  0  0  0  0  0  0  0
    2.5160   -2.2270    1.3835 H   0  0  0  0  0  0  0  0  0  0  0  0
    2.7396   -3.3630    2.7323 H   0  0  0  0  0  0  0  0  0  0  0  0
    2.9830   -1.6216    2.9882 H   0  0  0  0  0  0  0  0  0  0  0  0
    0.6406   -0.7682    1.3700 H   0  0  0  0  0  0  0  0  0  0  0  0
    1.0963   -0.1578    2.9611 H   0  0  0  0  0  0  0  0  0  0  0  0
    0.8671   -2.3541    3.8171 H   0  0  0  0  0  0  0  0  0  0  0  0
  1  2  1  0  0  0  0
  1  4  2  0  0  0  0
  2  5  2  0  0  0  0
  3  6  2  0  0  0  0
  3  7  1  0  0  0  0
  4 12  1  0  0  0  0
  5  6  1  0  0  0  0
  5 12  1  0  0  0  0
  6 13  1  0  0  0  0
  7  9  1  0  0  0  0
  7 10  2  0  0  0  0
  8 11  1  0  0  0  0
  9 11  1  0  0  0  0
 10 13  1  0  0  0  0
  1 14  1  0  0  0  0
  2 15  1  0  0  0  0
  3 16  1  0  0  0  0
  4 17  1  0  0  0  0
  8 18  1  0  0  0  0
  8 19  1  0  0  0  0
  8 20  1  0  0  0  0
  9 21  1  0  0  0  0
  9 22  1  0  0  0  0
 11 23  1  0  0  0  0
M  END
$$$$
frag.vs.478_0
  -OEChem-01121112263D

 23 24  0     1  0  0  0  0  0999 V2000
    2.0374   -0.6827   -0.1485 C   0  0  0  0  0  0  0  0  0  0  0  0
    0.9303    0.0616   -0.5572 C   0  0  0  0  0  0  0  0  0  0  0  0
    3.2357   -0.6019   -0.8584 C   0  0  0  0  0  0  0  0  0  0  0  0
    1.0149    0.8804   -1.6836 C   0  0  0  0  0  0  0  0  0  0  0  0
    3.3251    0.2272   -1.9768 C   0  0  0  0  0  0  0  0  0  0  0  0
    2.2088    0.9508   -2.4020 C   0  0  0  0  0  0  0  0  0  0  0  0
    4.6158    1.3962   -3.5122 C   0  0  0  0  0  0  0  0  0  0  0  0
    3.3513    1.4892   -4.3561 C   0  0  2  0  0  0  0  0  0  0  0  0
    3.4455    2.6178   -5.3724 C   0  0  0  0  0  0  0  0  0  0  0  0
    2.2525    2.6731   -6.1516 N   0  0  0  0  0  0  0  0  0  0  0  0
    4.5336    0.2805   -2.6198 O   0  0  0  0  0  0  0  0  0  0  0  0
    2.2239    1.7559   -3.5104 O   0  0  0  0  0  0  0  0  0  0  0  0
    1.9673   -1.3227    0.7263 H   0  0  0  0  0  0  0  0  0  0  0  0
   -0.0001   -0.0002   -0.0002 H   0  0  0  0  0  0  0  0  0  0  0  0
    4.0956   -1.1782   -0.5280 H   0  0  0  0  0  0  0  0  0  0  0  0
    0.1454    1.4498   -2.0004 H   0  0  0  0  0  0  0  0  0  0  0  0
    5.4950    1.2437   -4.1469 H   0  0  0  0  0  0  0  0  0  0  0  0
    4.7793    2.3047   -2.9182 H   0  0  0  0  0  0  0  0  0  0  0  0
    3.1650    0.5431   -4.8817 H   0  0  0  0  0  0  0  0  0  0  0  0
    4.2891    2.4332   -6.0272 H   0  0  0  0  0  0  0  0  0  0  0  0
    3.5722    3.5588   -4.8506 H   0  0  0  0  0  0  0  0  0  0  0  0
    1.7785    1.8147   -6.4081 H   0  0  0  0  0  0  0  0  0  0  0  0
    1.9940    3.5364   -6.6156 H   0  0  0  0  0  0  0  0  0  0  0  0
  1  2  1  0  0  0  0
  1  3  2  0  0  0  0
  2  4  2  0  0  0  0
  3  5  1  0  0  0  0
  4  6  1  0  0  0  0
  5  6  2  0  0  0  0
  5 11  1  0  0  0  0
  6 12  1  0  0  0  0
  7  8  1  0  0  0  0
  7 11  1  0  0  0  0
  8  9  1  0  0  0  0
  8 12  1  0  0  0  0
  9 10  1  0  0  0  0
  1 13  1  0  0  0  0
  2 14  1  0  0  0  0
  3 15  1  0  0  0  0
  4 16  1  0  0  0  0
  7 17  1  0  0  0  0
  7 18  1  0  0  0  0
  8 19  1  0  0  0  0
  9 20  1  0  0  0  0
  9 21  1  0  0  0  0
 10 22  1  0  0  0  0
 10 23  1  0  0  0  0
M  END
$$$$
frag.vs.478_1
  -OEChem-01121112263D

 23 24  0     1  0  0  0  0  0999 V2000
   -0.3020   -1.7261   -1.2528 C   0  0  0  0  0  0  0  0  0  0  0  0
    0.2425   -1.0462   -0.1627 C   0  0  0  0  0  0  0  0  0  0  0  0
    0.0112   -3.0685   -1.4676 C   0  0  0  0  0  0  0  0  0  0  0  0
    1.0932   -1.7097    0.7217 C   0  0  0  0  0  0  0  0  0  0  0  0
    0.8723   -3.7291   -0.5910 C   0  0  0  0  0  0  0  0  0  0  0  0
    1.3955   -3.0559    0.5152 C   0  0  0  0  0  0  0  0  0  0  0  0
    2.2907   -5.5081   -0.1269 C   0  0  0  0  0  0  0  0  0  0  0  0
    2.1777   -5.0885    1.3327 C   0  0  1  0  0  0  0  0  0  0  0  0
    3.3286   -5.6428    2.1594 C   0  0  0  0  0  0  0  0  0  0  0  0
    3.1993   -5.2255    3.5168 N   0  0  0  0  0  0  0  0  0  0  0  0
    1.1574   -5.0406   -0.8656 O   0  0  0  0  0  0  0  0  0  0  0  0
    2.2195   -3.6582    1.4292 O   0  0  0  0  0  0  0  0  0  0  0  0
   -0.9671   -1.2080   -1.9376 H   0  0  0  0  0  0  0  0  0  0  0  0
    0.0002    0.0001   -0.0004 H   0  0  0  0  0  0  0  0  0  0  0  0
   -0.4104   -3.5879   -2.3239 H   0  0  0  0  0  0  0  0  0  0  0  0
    1.5061   -1.1752    1.5728 H   0  0  0  0  0  0  0  0  0  0  0  0
    3.1992   -5.1112   -0.5980 H   0  0  0  0  0  0  0  0  0  0  0  0
    2.3121   -6.5993   -0.2161 H   0  0  0  0  0  0  0  0  0  0  0  0
    1.2263   -5.4302    1.7619 H   0  0  0  0  0  0  0  0  0  0  0  0
    4.2631   -5.2667    1.7596 H   0  0  0  0  0  0  0  0  0  0  0  0
    3.3094   -6.7253    2.1177 H   0  0  0  0  0  0  0  0  0  0  0  0
    2.8389   -4.3019    3.7273 H   0  0  0  0  0  0  0  0  0  0  0  0
    3.6496   -5.7583    4.2522 H   0  0  0  0  0  0  0  0  0  0  0  0
  1  2  1  0  0  0  0
  1  3  2  0  0  0  0
  2  4  2  0  0  0  0
  3  5  1  0  0  0  0
  4  6  1  0  0  0  0
  5  6  2  0  0  0  0
  5 11  1  0  0  0  0
  6 12  1  0  0  0  0
  7  8  1  0  0  0  0
  7 11  1  0  0  0  0
  8  9  1  0  0  0  0
  8 12  1  0  0  0  0
  9 10  1  0  0  0  0
  1 13  1  0  0  0  0
  2 14  1  0  0  0  0
  3 15  1  0  0  0  0
  4 16  1  0  0  0  0
  7 17  1  0  0  0  0
  7 18  1  0  0  0  0
  8 19  1  0  0  0  0
  9 20  1  0  0  0  0
  9 21  1  0  0  0  0
 10 22  1  0  0  0  0
 10 23  1  0  0  0  0
M  END
$$$$
frag.vs.479_0
  -OEChem-01121112263D

 22 23  0     1  0  0  0  0  0999 V2000
    2.0374   -0.6827   -0.1485 C   0  0  0  0  0  0  0  0  0  0  0  0
    0.9303    0.0616   -0.5572 C   0  0  0  0  0  0  0  0  0  0  0  0
    3.2357   -0.6019   -0.8584 C   0  0  0  0  0  0  0  0  0  0  0  0
    1.0149    0.8804   -1.6836 C   0  0  0  0  0  0  0  0  0  0  0  0
    3.3251    0.2272   -1.9768 C   0  0  0  0  0  0  0  0  0  0  0  0
    2.2088    0.9508   -2.4020 C   0  0  0  0  0  0  0  0  0  0  0  0
    4.6158    1.3962   -3.5122 C   0  0  0  0  0  0  0  0  0  0  0  0
    3.3513    1.4892   -4.3561 C   0  0  2  0  0  0  0  0  0  0  0  0
    3.4455    2.6178   -5.3724 C   0  0  0  0  0  0  0  0  0  0  0  0
    4.5336    0.2805   -2.6198 O   0  0  0  0  0  0  0  0  0  0  0  0
    2.2239    1.7559   -3.5104 O   0  0  0  0  0  0  0  0  0  0  0  0
    2.2491    2.6470   -6.1315 O   0  0  0  0  0  0  0  0  0  0  0  0
    1.9673   -1.3227    0.7263 H   0  0  0  0  0  0  0  0  0  0  0  0
   -0.0001   -0.0002   -0.0002 H   0  0  0  0  0  0  0  0  0  0  0  0
    4.0956   -1.1782   -0.5280 H   0  0  0  0  0  0  0  0  0  0  0  0
    0.1454    1.4498   -2.0004 H   0  0  0  0  0  0  0  0  0  0  0  0
    5.4950    1.2437   -4.1469 H   0  0  0  0  0  0  0  0  0  0  0  0
    4.7793    2.3047   -2.9182 H   0  0  0  0  0  0  0  0  0  0  0  0
    3.1650    0.5431   -4.8817 H   0  0  0  0  0  0  0  0  0  0  0  0
    4.2904    2.4506   -6.0427 H   0  0  0  0  0  0  0  0  0  0  0  0
    3.5686    3.5745   -4.8619 H   0  0  0  0  0  0  0  0  0  0  0  0
    2.3357    3.3743   -6.7706 H   0  0  0  0  0  0  0  0  0  0  0  0
  1  2  1  0  0  0  0
  1  3  2  0  0  0  0
  2  4  2  0  0  0  0
  3  5  1  0  0  0  0
  4  6  1  0  0  0  0
  5  6  2  0  0  0  0
  5 10  1  0  0  0  0
  6 11  1  0  0  0  0
  7  8  1  0  0  0  0
  7 10  1  0  0  0  0
  8  9  1  0  0  0  0
  8 11  1  0  0  0  0
  9 12  1  0  0  0  0
  1 13  1  0  0  0  0
  2 14  1  0  0  0  0
  3 15  1  0  0  0  0
  4 16  1  0  0  0  0
  7 17  1  0  0  0  0
  7 18  1  0  0  0  0
  8 19  1  0  0  0  0
  9 20  1  0  0  0  0
  9 21  1  0  0  0  0
 12 22  1  0  0  0  0
M  END
$$$$
frag.vs.479_1
  -OEChem-01121112263D

 22 23  0     1  0  0  0  0  0999 V2000
   -0.3020   -1.7261   -1.2528 C   0  0  0  0  0  0  0  0  0  0  0  0
    0.2425   -1.0462   -0.1627 C   0  0  0  0  0  0  0  0  0  0  0  0
    0.0112   -3.0685   -1.4676 C   0  0  0  0  0  0  0  0  0  0  0  0
    1.0932   -1.7097    0.7217 C   0  0  0  0  0  0  0  0  0  0  0  0
    0.8723   -3.7291   -0.5910 C   0  0  0  0  0  0  0  0  0  0  0  0
    1.3955   -3.0559    0.5152 C   0  0  0  0  0  0  0  0  0  0  0  0
    2.2907   -5.5081   -0.1269 C   0  0  0  0  0  0  0  0  0  0  0  0
    2.1777   -5.0885    1.3327 C   0  0  1  0  0  0  0  0  0  0  0  0
    3.3286   -5.6428    2.1594 C   0  0  0  0  0  0  0  0  0  0  0  0
    1.1574   -5.0406   -0.8656 O   0  0  0  0  0  0  0  0  0  0  0  0
    2.2195   -3.6582    1.4292 O   0  0  0  0  0  0  0  0  0  0  0  0
    3.1745   -5.2110    3.5003 O   0  0  0  0  0  0  0  0  0  0  0  0
   -0.9671   -1.2080   -1.9376 H   0  0  0  0  0  0  0  0  0  0  0  0
    0.0002    0.0001   -0.0004 H   0  0  0  0  0  0  0  0  0  0  0  0
   -0.4104   -3.5879   -2.3239 H   0  0  0  0  0  0  0  0  0  0  0  0
    1.5061   -1.1752    1.5728 H   0  0  0  0  0  0  0  0  0  0  0  0
    3.1992   -5.1112   -0.5980 H   0  0  0  0  0  0  0  0  0  0  0  0
    2.3121   -6.5993   -0.2161 H   0  0  0  0  0  0  0  0  0  0  0  0
    1.2263   -5.4302    1.7619 H   0  0  0  0  0  0  0  0  0  0  0  0
    4.2806   -5.2753    1.7724 H   0  0  0  0  0  0  0  0  0  0  0  0
    3.3204   -6.7338    2.1316 H   0  0  0  0  0  0  0  0  0  0  0  0
    3.9202   -5.5779    4.0046 H   0  0  0  0  0  0  0  0  0  0  0  0
  1  2  1  0  0  0  0
  1  3  2  0  0  0  0
  2  4  2  0  0  0  0
  3  5  1  0  0  0  0
  4  6  1  0  0  0  0
  5  6  2  0  0  0  0
  5 10  1  0  0  0  0
  6 11  1  0  0  0  0
  7  8  1  0  0  0  0
  7 10  1  0  0  0  0
  8  9  1  0  0  0  0
  8 11  1  0  0  0  0
  9 12  1  0  0  0  0
  1 13  1  0  0  0  0
  2 14  1  0  0  0  0
  3 15  1  0  0  0  0
  4 16  1  0  0  0  0
  7 17  1  0  0  0  0
  7 18  1  0  0  0  0
  8 19  1  0  0  0  0
  9 20  1  0  0  0  0
  9 21  1  0  0  0  0
 12 22  1  0  0  0  0
M  END
$$$$
frag.vs.480
  -OEChem-01121112263D

 21 22  0     0  0  0  0  0  0999 V2000
   -0.9828    1.8432   -0.5132 C   0  0  0  0  0  0  0  0  0  0  0  0
   -0.9455    0.4696   -0.2604 C   0  0  0  0  0  0  0  0  0  0  0  0
   -2.1827    2.4837   -0.8519 C   0  0  0  0  0  0  0  0  0  0  0  0
   -2.1012   -0.3134   -0.3361 C   0  0  0  0  0  0  0  0  0  0  0  0
   -5.3737    0.7659   -1.1396 C   0  0  0  0  0  0  0  0  0  0  0  0
   -3.3574    1.7156   -0.9335 C   0  0  0  0  0  0  0  0  0  0  0  0
   -4.7209    1.9732   -1.2341 C   0  0  0  0  0  0  0  0  0  0  0  0
   -3.2786    0.3511   -0.6747 C   0  0  0  0  0  0  0  0  0  0  0  0
   -5.0510    3.6568   -3.0155 C   0  0  0  0  0  0  0  0  0  0  0  0
   -5.3284    3.2726   -1.5777 C   0  0  0  0  0  0  0  0  0  0  0  0
   -4.3275    3.0151   -3.7667 O   0  0  0  0  0  0  0  0  0  0  0  0
   -4.5075   -0.2244   -0.8009 O   0  0  0  0  0  0  0  0  0  0  0  0
   -5.6528    4.8182   -3.3752 O   0  0  0  0  0  0  0  0  0  0  0  0
   -0.0676    2.4258   -0.4452 H   0  0  0  0  0  0  0  0  0  0  0  0
   -0.0002    0.0004    0.0014 H   0  0  0  0  0  0  0  0  0  0  0  0
   -2.1936    3.5522   -1.0447 H   0  0  0  0  0  0  0  0  0  0  0  0
   -2.0804   -1.3790   -0.1407 H   0  0  0  0  0  0  0  0  0  0  0  0
   -6.4007    0.4588   -1.2751 H   0  0  0  0  0  0  0  0  0  0  0  0
   -4.9895    4.0891   -0.9176 H   0  0  0  0  0  0  0  0  0  0  0  0
   -6.4251    3.2609   -1.4527 H   0  0  0  0  0  0  0  0  0  0  0  0
   -5.4704    5.1193   -4.2909 H   0  0  0  0  0  0  0  0  0  0  0  0
  1  2  1  0  0  0  0
  1  3  2  0  0  0  0
  2  4  2  0  0  0  0
  3  6  1  0  0  0  0
  4  8  1  0  0  0  0
  5  7  2  0  0  0  0
  5 12  1  0  0  0  0
  6  7  1  0  0  0  0
  6  8  2  0  0  0  0
  7 10  1  0  0  0  0
  8 12  1  0  0  0  0
  9 10  1  0  0  0  0
  9 11  2  0  0  0  0
  9 13  1  0  0  0  0
  1 14  1  0  0  0  0
  2 15  1  0  0  0  0
  3 16  1  0  0  0  0
  4 17  1  0  0  0  0
  5 18  1  0  0  0  0
 10 19  1  0  0  0  0
 10 20  1  0  0  0  0
 13 21  1  0  0  0  0
M  END
$$$$
frag.vs.481
  -OEChem-01121112263D

 20 21  0     0  0  0  0  0  0999 V2000
    1.8851   -1.0363   -0.1124 C   0  0  0  0  0  0  0  0  0  0  0  0
    0.8066   -0.4630    0.5610 C   0  0  0  0  0  0  0  0  0  0  0  0
    2.9210   -1.6309    0.6081 C   0  0  0  0  0  0  0  0  0  0  0  0
    0.7638   -0.4841    1.9551 C   0  0  0  0  0  0  0  0  0  0  0  0
    5.3218   -2.0790    2.8169 C   0  0  0  0  0  0  0  0  0  0  0  0
    4.8319   -3.7055    4.0570 C   0  0  0  0  0  0  0  0  0  0  0  0
    2.8783   -1.6520    2.0022 C   0  0  0  0  0  0  0  0  0  0  0  0
    1.7997   -1.0786    2.6757 C   0  0  0  0  0  0  0  0  0  0  0  0
    3.9666   -2.2763    2.7210 C   0  0  0  0  0  0  0  0  0  0  0  0
    5.8707   -2.9977    3.6747 N   0  0  0  0  0  0  0  0  0  0  0  0
    1.7299   -1.0851    4.0878 N   0  0  0  0  0  0  0  0  0  0  0  0
    3.6386   -3.3287    3.5213 O   0  0  0  0  0  0  0  0  0  0  0  0
    1.9182   -1.0196   -1.1980 H   0  0  0  0  0  0  0  0  0  0  0  0
   -0.0005   -0.0011   -0.0000 H   0  0  0  0  0  0  0  0  0  0  0  0
    3.7541   -2.0735    0.0670 H   0  0  0  0  0  0  0  0  0  0  0  0
   -0.0819   -0.0339    2.4687 H   0  0  0  0  0  0  0  0  0  0  0  0
    5.9281   -1.3346    2.3220 H   0  0  0  0  0  0  0  0  0  0  0  0
    4.8109   -4.5423    4.7389 H   0  0  0  0  0  0  0  0  0  0  0  0
    0.9670   -0.6240    4.5372 H   0  0  0  0  0  0  0  0  0  0  0  0
    2.4911   -1.4673    4.6084 H   0  0  0  0  0  0  0  0  0  0  0  0
  1  2  1  0  0  0  0
  1  3  2  0  0  0  0
  2  4  2  0  0  0  0
  3  7  1  0  0  0  0
  4  8  1  0  0  0  0
  5  9  2  0  0  0  0
  5 10  1  0  0  0  0
  6 10  2  0  0  0  0
  6 12  1  0  0  0  0
  7  8  2  0  0  0  0
  7  9  1  0  0  0  0
  8 11  1  0  0  0  0
  9 12  1  0  0  0  0
  1 13  1  0  0  0  0
  2 14  1  0  0  0  0
  3 15  1  0  0  0  0
  4 16  1  0  0  0  0
  5 17  1  0  0  0  0
  6 18  1  0  0  0  0
 11 19  1  0  0  0  0
 11 20  1  0  0  0  0
M  END
$$$$
frag.vs.482
  -OEChem-01121112263D

 24 25  0     0  0  0  0  0  0999 V2000
    1.8851   -1.0363   -0.1124 C   0  0  0  0  0  0  0  0  0  0  0  0
    0.8066   -0.4630    0.5610 C   0  0  0  0  0  0  0  0  0  0  0  0
    2.9210   -1.6309    0.6081 C   0  0  0  0  0  0  0  0  0  0  0  0
    1.7997   -1.0786    2.6757 C   0  0  0  0  0  0  0  0  0  0  0  0
   -0.7184    0.2682    3.9645 C   0  0  0  0  0  0  0  0  0  0  0  0
   -2.2243    1.1357    2.7801 C   0  0  0  0  0  0  0  0  0  0  0  0
    0.7638   -0.4841    1.9551 C   0  0  0  0  0  0  0  0  0  0  0  0
    2.8783   -1.6520    2.0022 C   0  0  0  0  0  0  0  0  0  0  0  0
   -0.3523    0.1086    2.6511 C   0  0  0  0  0  0  0  0  0  0  0  0
    3.9589   -2.2720    2.7526 C   0  0  0  0  0  0  0  0  0  0  0  0
    5.1688   -2.2003    4.8075 C   0  0  0  0  0  0  0  0  0  0  0  0
   -1.9187    0.9273    4.0408 N   0  0  0  0  0  0  0  0  0  0  0  0
    4.6426   -3.2193    2.3424 O   0  0  0  0  0  0  0  0  0  0  0  0
   -1.3221    0.6676    1.8748 O   0  0  0  0  0  0  0  0  0  0  0  0
    4.1298   -1.6774    3.9729 O   0  0  0  0  0  0  0  0  0  0  0  0
    1.9192   -1.0189   -1.1980 H   0  0  0  0  0  0  0  0  0  0  0  0
    0.0062   -0.0037   -0.0145 H   0  0  0  0  0  0  0  0  0  0  0  0
    3.7562   -2.0752    0.0728 H   0  0  0  0  0  0  0  0  0  0  0  0
    1.7713   -1.0966    3.7634 H   0  0  0  0  0  0  0  0  0  0  0  0
   -0.1911   -0.0508    4.8516 H   0  0  0  0  0  0  0  0  0  0  0  0
   -3.0970    1.6292    2.3794 H   0  0  0  0  0  0  0  0  0  0  0  0
    5.1994   -1.6413    5.7460 H   0  0  0  0  0  0  0  0  0  0  0  0
    6.1284   -2.1185    4.2909 H   0  0  0  0  0  0  0  0  0  0  0  0
    4.9596   -3.2516    5.0190 H   0  0  0  0  0  0  0  0  0  0  0  0
  1  2  1  0  0  0  0
  1  3  2  0  0  0  0
  2  7  2  0  0  0  0
  3  8  1  0  0  0  0
  4  7  1  0  0  0  0
  4  8  2  0  0  0  0
  5  9  2  0  0  0  0
  5 12  1  0  0  0  0
  6 12  2  0  0  0  0
  6 14  1  0  0  0  0
  7  9  1  0  0  0  0
  8 10  1  0  0  0  0
  9 14  1  0  0  0  0
 10 13  2  0  0  0  0
 10 15  1  0  0  0  0
 11 15  1  0  0  0  0
  1 16  1  0  0  0  0
  2 17  1  0  0  0  0
  3 18  1  0  0  0  0
  4 19  1  0  0  0  0
  5 20  1  0  0  0  0
  6 21  1  0  0  0  0
 11 22  1  0  0  0  0
 11 23  1  0  0  0  0
 11 24  1  0  0  0  0
M  END
$$$$
frag.vs.483
  -OEChem-01121112263D

 24 25  0     0  0  0  0  0  0999 V2000
    0.8726    1.2794    1.5062 C   0  0  0  0  0  0  0  0  0  0  0  0
    0.7042    1.9049    2.7438 C   0  0  0  0  0  0  0  0  0  0  0  0
   -1.3491    0.2943    1.6535 C   0  0  0  0  0  0  0  0  0  0  0  0
   -0.1481    0.4787    0.9641 C   0  0  0  0  0  0  0  0  0  0  0  0
   -0.4910    1.7067    3.4041 C   0  0  0  0  0  0  0  0  0  0  0  0
   -1.4901    0.9230    2.8735 C   0  0  0  0  0  0  0  0  0  0  0  0
   -0.2105   -0.0490   -2.8599 C   0  0  0  0  0  0  0  0  0  0  0  0
   -2.1588    1.6916    4.7825 C   0  0  0  0  0  0  0  0  0  0  0  0
    0.0547   -0.1794   -0.3598 C   0  0  0  0  0  0  0  0  0  0  0  0
   -0.4028    0.6736   -1.5484 C   0  0  0  0  0  0  0  0  0  0  0  0
    0.2451   -1.1816   -2.9533 O   0  0  0  0  0  0  0  0  0  0  0  0
   -0.8328    2.2326    4.6117 O   0  0  0  0  0  0  0  0  0  0  0  0
   -2.5825    0.8600    3.6827 O   0  0  0  0  0  0  0  0  0  0  0  0
   -0.5692    0.6994   -3.9320 O   0  0  0  0  0  0  0  0  0  0  0  0
    1.8043    1.4176    0.9628 H   0  0  0  0  0  0  0  0  0  0  0  0
    1.4886    2.5233    3.1651 H   0  0  0  0  0  0  0  0  0  0  0  0
   -2.1443   -0.3208    1.2463 H   0  0  0  0  0  0  0  0  0  0  0  0
   -2.1787    1.0948    5.7016 H   0  0  0  0  0  0  0  0  0  0  0  0
   -2.8661    2.5224    4.8868 H   0  0  0  0  0  0  0  0  0  0  0  0
    1.1137   -0.4576   -0.4952 H   0  0  0  0  0  0  0  0  0  0  0  0
   -0.4981   -1.1333   -0.3792 H   0  0  0  0  0  0  0  0  0  0  0  0
   -1.4733    0.8981   -1.4651 H   0  0  0  0  0  0  0  0  0  0  0  0
    0.1045    1.6447   -1.5726 H   0  0  0  0  0  0  0  0  0  0  0  0
   -0.4402    0.2726   -4.8057 H   0  0  0  0  0  0  0  0  0  0  0  0
  1  2  1  0  0  0  0
  1  4  2  0  0  0  0
  2  5  2  0  0  0  0
  3  4  1  0  0  0  0
  3  6  2  0  0  0  0
  4  9  1  0  0  0  0
  5  6  1  0  0  0  0
  5 12  1  0  0  0  0
  6 13  1  0  0  0  0
  7 10  1  0  0  0  0
  7 11  2  0  0  0  0
  7 14  1  0  0  0  0
  8 12  1  0  0  0  0
  8 13  1  0  0  0  0
  9 10  1  0  0  0  0
  1 15  1  0  0  0  0
  2 16  1  0  0  0  0
  3 17  1  0  0  0  0
  8 18  1  0  0  0  0
  8 19  1  0  0  0  0
  9 20  1  0  0  0  0
  9 21  1  0  0  0  0
 10 22  1  0  0  0  0
 10 23  1  0  0  0  0
 14 24  1  0  0  0  0
M  END
$$$$
frag.vs.484
  -OEChem-01121112263D

 24 25  0     0  0  0  0  0  0999 V2000
    1.8851   -1.0363   -0.1124 C   0  0  0  0  0  0  0  0  0  0  0  0
    2.8783   -1.6520    2.0022 C   0  0  0  0  0  0  0  0  0  0  0  0
    0.8066   -0.4630    0.5610 C   0  0  0  0  0  0  0  0  0  0  0  0
    1.7997   -1.0786    2.6757 C   0  0  0  0  0  0  0  0  0  0  0  0
    2.9210   -1.6309    0.6081 C   0  0  0  0  0  0  0  0  0  0  0  0
    0.7638   -0.4841    1.9551 C   0  0  0  0  0  0  0  0  0  0  0  0
    4.0316   -2.2203   -0.0857 C   0  0  0  0  0  0  0  0  0  0  0  0
    5.2438   -2.8378   -1.6441 C   0  0  0  0  0  0  0  0  0  0  0  0
    5.9183   -3.1687   -2.9064 C   0  0  0  0  0  0  0  0  0  0  0  0
   -0.3892    0.1303    2.6742 C   0  0  0  0  0  0  0  0  0  0  0  0
    4.1077   -2.2176   -1.4481 N   0  0  0  0  0  0  0  0  0  0  0  0
    5.0512   -2.8030    0.5520 N   0  0  0  0  0  0  0  0  0  0  0  0
    5.8725   -3.2217   -0.5023 O   0  0  0  0  0  0  0  0  0  0  0  0
   -0.2688    1.5470    2.6365 O   0  0  0  0  0  0  0  0  0  0  0  0
    1.9030   -1.0121   -1.1995 H   0  0  0  0  0  0  0  0  0  0  0  0
    3.6781   -2.1116    2.5782 H   0  0  0  0  0  0  0  0  0  0  0  0
    0.0041   -0.0011   -0.0080 H   0  0  0  0  0  0  0  0  0  0  0  0
    1.7740   -1.0992    3.7620 H   0  0  0  0  0  0  0  0  0  0  0  0
    6.6004   -2.3598   -3.2246 H   0  0  0  0  0  0  0  0  0  0  0  0
    6.5181   -4.0951   -2.8329 H   0  0  0  0  0  0  0  0  0  0  0  0
    5.2036   -3.3407   -3.7330 H   0  0  0  0  0  0  0  0  0  0  0  0
   -1.3457   -0.1529    2.2139 H   0  0  0  0  0  0  0  0  0  0  0  0
   -0.4206   -0.1935    3.7235 H   0  0  0  0  0  0  0  0  0  0  0  0
   -1.0349    1.9049    3.1130 H   0  0  0  0  0  0  0  0  0  0  0  0
  1  3  2  0  0  0  0
  1  5  1  0  0  0  0
  2  4  1  0  0  0  0
  2  5  2  0  0  0  0
  3  6  1  0  0  0  0
  4  6  2  0  0  0  0
  5  7  1  0  0  0  0
  6 10  1  0  0  0  0
  7 11  1  0  0  0  0
  7 12  2  0  0  0  0
  8  9  1  0  0  0  0
  8 11  2  0  0  0  0
  8 13  1  0  0  0  0
 10 14  1  0  0  0  0
 12 13  1  0  0  0  0
  1 15  1  0  0  0  0
  2 16  1  0  0  0  0
  3 17  1  0  0  0  0
  4 18  1  0  0  0  0
  9 19  1  0  0  0  0
  9 20  1  0  0  0  0
  9 21  1  0  0  0  0
 10 22  1  0  0  0  0
 10 23  1  0  0  0  0
 14 24  1  0  0  0  0
M  END
$$$$
frag.vs.485
  -OEChem-01121112263D

 19 19  0     0  0  0  0  0  0999 V2000
    1.8851   -1.0363   -0.1124 C   0  0  0  0  0  0  0  0  0  0  0  0
    0.8066   -0.4630    0.5610 C   0  0  0  0  0  0  0  0  0  0  0  0
    2.9210   -1.6309    0.6081 C   0  0  0  0  0  0  0  0  0  0  0  0
    1.7997   -1.0786    2.6757 C   0  0  0  0  0  0  0  0  0  0  0  0
    0.7638   -0.4841    1.9551 C   0  0  0  0  0  0  0  0  0  0  0  0
    2.8783   -1.6520    2.0022 C   0  0  0  0  0  0  0  0  0  0  0  0
   -0.3264    0.0962    2.6358 N   0  0  0  0  0  0  0  0  0  0  0  0
    5.2277   -1.0719    3.1195 N   0  0  0  0  0  0  0  0  0  0  0  0
    3.6546   -2.8027    4.2037 O   0  0  0  0  0  0  0  0  0  0  0  0
    4.8261   -3.3806    2.0493 O   0  0  0  0  0  0  0  0  0  0  0  0
    4.1733   -2.3991    2.9043 S   0  0  0  0  0  0  0  0  0  0  0  0
    1.9185   -1.0201   -1.1978 H   0  0  0  0  0  0  0  0  0  0  0  0
    0.0051   -0.0021   -0.0106 H   0  0  0  0  0  0  0  0  0  0  0  0
    3.7562   -2.0755    0.0735 H   0  0  0  0  0  0  0  0  0  0  0  0
    1.7666   -1.0951    3.7629 H   0  0  0  0  0  0  0  0  0  0  0  0
   -1.0387    0.5609    2.1098 H   0  0  0  0  0  0  0  0  0  0  0  0
   -0.3224    0.1163    3.6356 H   0  0  0  0  0  0  0  0  0  0  0  0
    5.3082   -0.6681    4.0607 H   0  0  0  0  0  0  0  0  0  0  0  0
    6.1065   -1.0633    2.5876 H   0  0  0  0  0  0  0  0  0  0  0  0
  1  2  1  0  0  0  0
  1  3  2  0  0  0  0
  2  5  2  0  0  0  0
  3  6  1  0  0  0  0
  4  5  1  0  0  0  0
  4  6  2  0  0  0  0
  5  7  1  0  0  0  0
  6 11  1  0  0  0  0
  8 11  1  0  0  0  0
  9 11  2  0  0  0  0
 10 11  2  0  0  0  0
  1 12  1  0  0  0  0
  2 13  1  0  0  0  0
  3 14  1  0  0  0  0
  4 15  1  0  0  0  0
  7 16  1  0  0  0  0
  7 17  1  0  0  0  0
  8 18  1  0  0  0  0
  8 19  1  0  0  0  0
M  END
$$$$
frag.vs.486
  -OEChem-01121112263D

 32 33  0     0  0  0  0  0  0999 V2000
   -4.8284   -0.2142    3.0475 C   0  0  0  0  0  0  0  0  0  0  0  0
   -5.4747    1.3619    1.3343 C   0  0  0  0  0  0  0  0  0  0  0  0
   -3.7810    0.6259    3.4254 C   0  0  0  0  0  0  0  0  0  0  0  0
   -4.4274    2.2021    1.7122 C   0  0  0  0  0  0  0  0  0  0  0  0
   -5.6752    0.1537    2.0019 C   0  0  0  0  0  0  0  0  0  0  0  0
   -3.5805    1.8341    2.7578 C   0  0  0  0  0  0  0  0  0  0  0  0
    0.6399    0.8237    0.3391 C   0  0  0  0  0  0  0  0  0  0  0  0
   -0.0042    2.1570   -0.0303 C   0  0  0  0  0  0  0  0  0  0  0  0
    0.8466    0.7228    1.8479 C   0  0  0  0  0  0  0  0  0  0  0  0
   -1.2931    2.3865    0.7521 C   0  0  0  0  0  0  0  0  0  0  0  0
   -0.4546    0.9714    2.6037 C   0  0  0  0  0  0  0  0  0  0  0  0
   -1.0128    2.3004    2.2158 N   0  0  0  0  0  0  0  0  0  0  0  0
   -6.7344   -0.6955    1.6194 N   0  0  0  0  0  0  0  0  0  0  0  0
   -2.5956    4.2422    2.8235 O   0  0  0  0  0  0  0  0  0  0  0  0
   -1.9166    2.6000    4.6096 O   0  0  0  0  0  0  0  0  0  0  0  0
   -2.2551    2.8976    3.2348 S   0  0  0  0  0  0  0  0  0  0  0  0
   -4.9753   -1.1536    3.5744 H   0  0  0  0  0  0  0  0  0  0  0  0
   -6.1294    1.6588    0.5188 H   0  0  0  0  0  0  0  0  0  0  0  0
   -3.1275    0.3290    4.2412 H   0  0  0  0  0  0  0  0  0  0  0  0
   -4.2804    3.1410    1.1849 H   0  0  0  0  0  0  0  0  0  0  0  0
    0.0003   -0.0002   -0.0003 H   0  0  0  0  0  0  0  0  0  0  0  0
    1.6010    0.7190   -0.1763 H   0  0  0  0  0  0  0  0  0  0  0  0
    0.7022    2.9698    0.1808 H   0  0  0  0  0  0  0  0  0  0  0  0
   -0.2137    2.1826   -1.1054 H   0  0  0  0  0  0  0  0  0  0  0  0
    1.2411   -0.2670    2.1030 H   0  0  0  0  0  0  0  0  0  0  0  0
    1.5969    1.4605    2.1587 H   0  0  0  0  0  0  0  0  0  0  0  0
   -1.6823    3.3822    0.5134 H   0  0  0  0  0  0  0  0  0  0  0  0
   -2.0507    1.6436    0.4776 H   0  0  0  0  0  0  0  0  0  0  0  0
   -1.1864    0.1854    2.3847 H   0  0  0  0  0  0  0  0  0  0  0  0
   -0.2487    0.9628    3.6795 H   0  0  0  0  0  0  0  0  0  0  0  0
   -6.8391   -1.5799    2.0740 H   0  0  0  0  0  0  0  0  0  0  0  0
   -7.3047   -0.4420    0.8381 H   0  0  0  0  0  0  0  0  0  0  0  0
  1  3  1  0  0  0  0
  1  5  2  0  0  0  0
  2  4  2  0  0  0  0
  2  5  1  0  0  0  0
  3  6  2  0  0  0  0
  4  6  1  0  0  0  0
  5 13  1  0  0  0  0
  6 16  1  0  0  0  0
  7  8  1  0  0  0  0
  7  9  1  0  0  0  0
  8 10  1  0  0  0  0
  9 11  1  0  0  0  0
 10 12  1  0  0  0  0
 11 12  1  0  0  0  0
 12 16  1  0  0  0  0
 14 16  2  0  0  0  0
 15 16  2  0  0  0  0
  1 17  1  0  0  0  0
  2 18  1  0  0  0  0
  3 19  1  0  0  0  0
  4 20  1  0  0  0  0
  7 21  1  0  0  0  0
  7 22  1  0  0  0  0
  8 23  1  0  0  0  0
  8 24  1  0  0  0  0
  9 25  1  0  0  0  0
  9 26  1  0  0  0  0
 10 27  1  0  0  0  0
 10 28  1  0  0  0  0
 11 29  1  0  0  0  0
 11 30  1  0  0  0  0
 13 31  1  0  0  0  0
 13 32  1  0  0  0  0
M  END
$$$$
frag.vs.487
  -OEChem-01121112263D

 30 31  0     0  0  0  0  0  0999 V2000
   -6.3272    0.1416    0.4696 C   0  0  0  0  0  0  0  0  0  0  0  0
   -6.2226   -2.2663    0.3022 C   0  0  0  0  0  0  0  0  0  0  0  0
   -5.0038    0.2291    0.0378 C   0  0  0  0  0  0  0  0  0  0  0  0
   -4.8992   -2.1788   -0.1298 C   0  0  0  0  0  0  0  0  0  0  0  0
   -6.9366   -1.1062    0.6019 C   0  0  0  0  0  0  0  0  0  0  0  0
   -4.2898   -0.9310   -0.2620 C   0  0  0  0  0  0  0  0  0  0  0  0
   -2.1414    0.1973    1.6612 C   0  0  0  0  0  0  0  0  0  0  0  0
   -1.8121   -2.2232    1.3714 C   0  0  0  0  0  0  0  0  0  0  0  0
   -1.1660    0.1378    2.8284 C   0  0  0  0  0  0  0  0  0  0  0  0
   -0.8509   -2.1810    2.5511 C   0  0  0  0  0  0  0  0  0  0  0  0
   -1.8036   -0.8914    0.6982 N   0  0  0  0  0  0  0  0  0  0  0  0
   -8.2748   -1.1952    1.0386 N   0  0  0  0  0  0  0  0  0  0  0  0
   -2.3158   -2.0200   -1.5623 O   0  0  0  0  0  0  0  0  0  0  0  0
   -2.4197    0.4912   -1.3864 O   0  0  0  0  0  0  0  0  0  0  0  0
   -1.2254   -1.1432    3.4597 O   0  0  0  0  0  0  0  0  0  0  0  0
   -2.6145   -0.8213   -0.8081 S   0  0  0  0  0  0  0  0  0  0  0  0
   -6.8741    1.0521    0.7008 H   0  0  0  0  0  0  0  0  0  0  0  0
   -6.6883   -3.2437    0.4008 H   0  0  0  0  0  0  0  0  0  0  0  0
   -4.5391    1.2064   -0.0615 H   0  0  0  0  0  0  0  0  0  0  0  0
   -4.3524   -3.0893   -0.3603 H   0  0  0  0  0  0  0  0  0  0  0  0
   -3.1693    0.0542    2.0141 H   0  0  0  0  0  0  0  0  0  0  0  0
   -2.0632    1.1699    1.1653 H   0  0  0  0  0  0  0  0  0  0  0  0
   -1.4961   -2.9984    0.6663 H   0  0  0  0  0  0  0  0  0  0  0  0
   -2.8298   -2.4414    1.7151 H   0  0  0  0  0  0  0  0  0  0  0  0
   -0.1372    0.3347    2.5038 H   0  0  0  0  0  0  0  0  0  0  0  0
   -1.4305    0.8917    3.5763 H   0  0  0  0  0  0  0  0  0  0  0  0
   -0.8847   -3.1300    3.0953 H   0  0  0  0  0  0  0  0  0  0  0  0
    0.1828   -2.0199    2.2228 H   0  0  0  0  0  0  0  0  0  0  0  0
   -8.7608   -0.3599    1.2953 H   0  0  0  0  0  0  0  0  0  0  0  0
   -8.6844   -2.0973    1.1742 H   0  0  0  0  0  0  0  0  0  0  0  0
  1  3  1  0  0  0  0
  1  5  2  0  0  0  0
  2  4  2  0  0  0  0
  2  5  1  0  0  0  0
  3  6  2  0  0  0  0
  4  6  1  0  0  0  0
  5 12  1  0  0  0  0
  6 16  1  0  0  0  0
  7  9  1  0  0  0  0
  7 11  1  0  0  0  0
  8 10  1  0  0  0  0
  8 11  1  0  0  0  0
  9 15  1  0  0  0  0
 10 15  1  0  0  0  0
 11 16  1  0  0  0  0
 13 16  2  0  0  0  0
 14 16  2  0  0  0  0
  1 17  1  0  0  0  0
  2 18  1  0  0  0  0
  3 19  1  0  0  0  0
  4 20  1  0  0  0  0
  7 21  1  0  0  0  0
  7 22  1  0  0  0  0
  8 23  1  0  0  0  0
  8 24  1  0  0  0  0
  9 25  1  0  0  0  0
  9 26  1  0  0  0  0
 10 27  1  0  0  0  0
 10 28  1  0  0  0  0
 12 29  1  0  0  0  0
 12 30  1  0  0  0  0
M  END
$$$$
frag.vs.488
  -OEChem-01121112263D

 32 33  0     0  0  0  0  0  0999 V2000
    1.7666    1.4594    0.9827 C   0  0  0  0  0  0  0  0  0  0  0  0
    4.0063    0.6272    0.6245 C   0  0  0  0  0  0  0  0  0  0  0  0
    2.1096    1.8221    2.2851 C   0  0  0  0  0  0  0  0  0  0  0  0
    4.3493    0.9899    1.9270 C   0  0  0  0  0  0  0  0  0  0  0  0
    2.7149    0.8619    0.1524 C   0  0  0  0  0  0  0  0  0  0  0  0
    3.4009    1.5874    2.7573 C   0  0  0  0  0  0  0  0  0  0  0  0
    0.8013   -0.8208   -2.5639 C   0  0  0  0  0  0  0  0  0  0  0  0
    2.3679   -1.9260   -1.0534 C   0  0  0  0  0  0  0  0  0  0  0  0
   -0.2158   -1.9557   -2.5823 C   0  0  0  0  0  0  0  0  0  0  0  0
    1.5443   -3.1974   -0.8860 C   0  0  0  0  0  0  0  0  0  0  0  0
    2.3465    0.4707   -1.2495 C   0  0  0  0  0  0  0  0  0  0  0  0
    1.5232   -0.7411   -1.2823 N   0  0  0  0  0  0  0  0  0  0  0  0
    3.7487    1.9557    4.0735 N   0  0  0  0  0  0  0  0  0  0  0  0
   -0.4676   -4.4860   -1.9573 O   0  0  0  0  0  0  0  0  0  0  0  0
    1.4523   -3.7902   -3.4406 O   0  0  0  0  0  0  0  0  0  0  0  0
    0.5605   -3.5333   -2.3268 S   0  0  0  0  0  0  0  0  0  0  0  0
    0.7579    1.6449    0.6235 H   0  0  0  0  0  0  0  0  0  0  0  0
    4.7511    0.1607   -0.0145 H   0  0  0  0  0  0  0  0  0  0  0  0
    1.3626    2.2857    2.9243 H   0  0  0  0  0  0  0  0  0  0  0  0
    5.3583    0.8017    2.2847 H   0  0  0  0  0  0  0  0  0  0  0  0
    1.5059   -0.9313   -3.3984 H   0  0  0  0  0  0  0  0  0  0  0  0
    0.2501    0.1132   -2.7303 H   0  0  0  0  0  0  0  0  0  0  0  0
    2.9460   -1.7893   -0.1310 H   0  0  0  0  0  0  0  0  0  0  0  0
    3.0908   -2.0493   -1.8704 H   0  0  0  0  0  0  0  0  0  0  0  0
   -0.9651   -1.8263   -1.7940 H   0  0  0  0  0  0  0  0  0  0  0  0
   -0.7322   -2.0001   -3.5461 H   0  0  0  0  0  0  0  0  0  0  0  0
    2.1936   -4.0637   -0.7269 H   0  0  0  0  0  0  0  0  0  0  0  0
    0.8618   -3.1153   -0.0334 H   0  0  0  0  0  0  0  0  0  0  0  0
    1.7847    1.2735   -1.7394 H   0  0  0  0  0  0  0  0  0  0  0  0
    3.2408    0.2843   -1.8534 H   0  0  0  0  0  0  0  0  0  0  0  0
    3.0748    2.4270    4.6425 H   0  0  0  0  0  0  0  0  0  0  0  0
    4.6904    1.8251    4.3838 H   0  0  0  0  0  0  0  0  0  0  0  0
  1  3  1  0  0  0  0
  1  5  2  0  0  0  0
  2  4  2  0  0  0  0
  2  5  1  0  0  0  0
  3  6  2  0  0  0  0
  4  6  1  0  0  0  0
  5 11  1  0  0  0  0
  6 13  1  0  0  0  0
  7  9  1  0  0  0  0
  7 12  1  0  0  0  0
  8 10  1  0  0  0  0
  8 12  1  0  0  0  0
  9 16  1  0  0  0  0
 10 16  1  0  0  0  0
 11 12  1  0  0  0  0
 14 16  2  0  0  0  0
 15 16  2  0  0  0  0
  1 17  1  0  0  0  0
  2 18  1  0  0  0  0
  3 19  1  0  0  0  0
  4 20  1  0  0  0  0
  7 21  1  0  0  0  0
  7 22  1  0  0  0  0
  8 23  1  0  0  0  0
  8 24  1  0  0  0  0
  9 25  1  0  0  0  0
  9 26  1  0  0  0  0
 10 27  1  0  0  0  0
 10 28  1  0  0  0  0
 11 29  1  0  0  0  0
 11 30  1  0  0  0  0
 13 31  1  0  0  0  0
 13 32  1  0  0  0  0
M  END
$$$$
frag.vs.489
  -OEChem-01121112263D

 22 23  0     0  0  0  0  0  0999 V2000
    0.6300    0.3760    1.9832 C   0  0  0  0  0  0  0  0  0  0  0  0
    0.3254   -0.4788    0.9296 C   0  0  0  0  0  0  0  0  0  0  0  0
    0.8377   -0.1446    3.2556 C   0  0  0  0  0  0  0  0  0  0  0  0
    1.7341   -1.7256    5.7472 C   0  0  0  0  0  0  0  0  0  0  0  0
    1.6571   -2.6114    6.8606 C   0  0  0  0  0  0  0  0  0  0  0  0
    0.2408   -1.8353    1.1987 C   0  0  0  0  0  0  0  0  0  0  0  0
    0.7299   -1.5161    3.4206 C   0  0  0  0  0  0  0  0  0  0  0  0
    0.9296   -2.1325    4.7057 C   0  0  0  0  0  0  0  0  0  0  0  0
    0.7965   -3.6616    6.6276 C   0  0  0  0  0  0  0  0  0  0  0  0
    0.4542   -4.7458    7.4898 C   0  0  0  0  0  0  0  0  0  0  0  0
    0.4359   -2.3780    2.4214 N   0  0  0  0  0  0  0  0  0  0  0  0
    1.0423   -4.8064    8.7642 N   0  0  0  0  0  0  0  0  0  0  0  0
   -0.3414   -5.6576    7.1457 O   0  0  0  0  0  0  0  0  0  0  0  0
    0.0861   -3.5771    5.0718 S   0  0  0  0  0  0  0  0  0  0  0  0
    0.7055    1.4457    1.8129 H   0  0  0  0  0  0  0  0  0  0  0  0
    0.1604   -0.0955   -0.0708 H   0  0  0  0  0  0  0  0  0  0  0  0
    1.0762    0.5151    4.0837 H   0  0  0  0  0  0  0  0  0  0  0  0
    2.3512   -0.8360    5.7197 H   0  0  0  0  0  0  0  0  0  0  0  0
    2.2074   -2.4806    7.7841 H   0  0  0  0  0  0  0  0  0  0  0  0
    0.0076   -2.5442    0.4111 H   0  0  0  0  0  0  0  0  0  0  0  0
    1.6939   -4.0783    9.0363 H   0  0  0  0  0  0  0  0  0  0  0  0
    0.8396   -5.5517    9.4226 H   0  0  0  0  0  0  0  0  0  0  0  0
  1  2  1  0  0  0  0
  1  3  2  0  0  0  0
  2  6  2  0  0  0  0
  3  7  1  0  0  0  0
  4  5  1  0  0  0  0
  4  8  2  0  0  0  0
  5  9  2  0  0  0  0
  6 11  1  0  0  0  0
  7  8  1  0  0  0  0
  7 11  2  0  0  0  0
  8 14  1  0  0  0  0
  9 10  1  0  0  0  0
  9 14  1  0  0  0  0
 10 12  1  0  0  0  0
 10 13  2  0  0  0  0
  1 15  1  0  0  0  0
  2 16  1  0  0  0  0
  3 17  1  0  0  0  0
  4 18  1  0  0  0  0
  5 19  1  0  0  0  0
  6 20  1  0  0  0  0
 12 21  1  0  0  0  0
 12 22  1  0  0  0  0
M  END
$$$$
frag.vs.490
  -OEChem-01121112263D

 18 19  0     0  0  0  0  0  0999 V2000
    1.0792   -3.3455   -0.3349 C   0  0  0  0  0  0  0  0  0  0  0  0
    2.0354   -2.6588    0.3713 C   0  0  0  0  0  0  0  0  0  0  0  0
    1.6880   -1.3045    0.5892 C   0  0  0  0  0  0  0  0  0  0  0  0
    0.4945   -0.9613    0.0039 C   0  0  0  0  0  0  0  0  0  0  0  0
   -0.1834    0.2941   -0.0223 C   0  0  0  0  0  0  0  0  0  0  0  0
    4.1200   -2.2283    1.2267 C   0  0  0  0  0  0  0  0  0  0  0  0
    3.4509   -1.1201    2.0457 C   0  0  0  0  0  0  0  0  0  0  0  0
   -1.2773    0.5368   -0.5796 O   0  0  0  0  0  0  0  0  0  0  0  0
    3.1751   -3.2336    0.8217 O   0  0  0  0  0  0  0  0  0  0  0  0
    2.4500   -0.4258    1.2816 O   0  0  0  0  0  0  0  0  0  0  0  0
    0.4812    1.2897    0.6481 O   0  0  0  0  0  0  0  0  0  0  0  0
   -0.2254   -2.3152   -0.7737 S   0  0  0  0  0  0  0  0  0  0  0  0
    1.0787   -4.3858   -0.6281 H   0  0  0  0  0  0  0  0  0  0  0  0
    4.5934   -1.8183    0.3256 H   0  0  0  0  0  0  0  0  0  0  0  0
    4.8931   -2.7223    1.8237 H   0  0  0  0  0  0  0  0  0  0  0  0
    2.9733   -1.5293    2.9448 H   0  0  0  0  0  0  0  0  0  0  0  0
    4.1958   -0.3827    2.3613 H   0  0  0  0  0  0  0  0  0  0  0  0
    0.0227    2.1569    0.6367 H   0  0  0  0  0  0  0  0  0  0  0  0
  1  2  2  0  0  0  0
  1 12  1  0  0  0  0
  2  3  1  0  0  0  0
  2  9  1  0  0  0  0
  3  4  2  0  0  0  0
  3 10  1  0  0  0  0
  4  5  1  0  0  0  0
  4 12  1  0  0  0  0
  5  8  2  0  0  0  0
  5 11  1  0  0  0  0
  6  7  1  0  0  0  0
  6  9  1  0  0  0  0
  7 10  1  0  0  0  0
  1 13  1  0  0  0  0
  6 14  1  0  0  0  0
  6 15  1  0  0  0  0
  7 16  1  0  0  0  0
  7 17  1  0  0  0  0
 11 18  1  0  0  0  0
M  END
$$$$
frag.vs.491
  -OEChem-01121112263D

 19 20  0     0  0  0  0  0  0999 V2000
    1.0792   -3.3455   -0.3349 C   0  0  0  0  0  0  0  0  0  0  0  0
    2.0354   -2.6588    0.3713 C   0  0  0  0  0  0  0  0  0  0  0  0
    1.6880   -1.3045    0.5892 C   0  0  0  0  0  0  0  0  0  0  0  0
    0.4945   -0.9613    0.0039 C   0  0  0  0  0  0  0  0  0  0  0  0
    4.1200   -2.2283    1.2267 C   0  0  0  0  0  0  0  0  0  0  0  0
    3.4509   -1.1201    2.0457 C   0  0  0  0  0  0  0  0  0  0  0  0
   -0.1999    0.3440   -0.0188 C   0  0  0  0  0  0  0  0  0  0  0  0
    3.1751   -3.2336    0.8217 O   0  0  0  0  0  0  0  0  0  0  0  0
    2.4500   -0.4258    1.2816 O   0  0  0  0  0  0  0  0  0  0  0  0
   -0.7985    0.5971    1.2512 O   0  0  0  0  0  0  0  0  0  0  0  0
   -0.2254   -2.3152   -0.7737 S   0  0  0  0  0  0  0  0  0  0  0  0
    1.0787   -4.3857   -0.6293 H   0  0  0  0  0  0  0  0  0  0  0  0
    4.5937   -1.8183    0.3257 H   0  0  0  0  0  0  0  0  0  0  0  0
    4.8936   -2.7215    1.8237 H   0  0  0  0  0  0  0  0  0  0  0  0
    2.9735   -1.5299    2.9446 H   0  0  0  0  0  0  0  0  0  0  0  0
    4.1963   -0.3834    2.3614 H   0  0  0  0  0  0  0  0  0  0  0  0
    0.4896    1.1755   -0.2437 H   0  0  0  0  0  0  0  0  0  0  0  0
   -0.9933    0.3725   -0.7849 H   0  0  0  0  0  0  0  0  0  0  0  0
   -1.2370    1.4588    1.1814 H   0  0  0  0  0  0  0  0  0  0  0  0
  1  2  2  0  0  0  0
  1 11  1  0  0  0  0
  2  3  1  0  0  0  0
  2  8  1  0  0  0  0
  3  4  2  0  0  0  0
  3  9  1  0  0  0  0
  4  7  1  0  0  0  0
  4 11  1  0  0  0  0
  5  6  1  0  0  0  0
  5  8  1  0  0  0  0
  6  9  1  0  0  0  0
  7 10  1  0  0  0  0
  1 12  1  0  0  0  0
  5 13  1  0  0  0  0
  5 14  1  0  0  0  0
  6 15  1  0  0  0  0
  6 16  1  0  0  0  0
  7 17  1  0  0  0  0
  7 18  1  0  0  0  0
 10 19  1  0  0  0  0
M  END
$$$$
frag.vs.492
  -OEChem-01121112263D

 19 20  0     0  0  0  0  0  0999 V2000
   -0.4661   -4.6353   -4.8998 C   0  0  0  0  0  0  0  0  0  0  0  0
   -0.4917   -3.4484   -4.1119 C   0  0  0  0  0  0  0  0  0  0  0  0
   -0.2303   -1.3824   -1.7538 C   0  0  0  0  0  0  0  0  0  0  0  0
    0.0069   -5.7172   -4.1903 C   0  0  0  0  0  0  0  0  0  0  0  0
    0.0707   -2.7221   -1.7863 C   0  0  0  0  0  0  0  0  0  0  0  0
   -0.0376   -3.6684   -2.8300 C   0  0  0  0  0  0  0  0  0  0  0  0
    0.0890   -0.9817   -0.4426 C   0  0  0  0  0  0  0  0  0  0  0  0
   -0.0375    0.3306    0.1243 C   0  0  0  0  0  0  0  0  0  0  0  0
    0.5568   -1.9856    0.3039 N   0  0  0  0  0  0  0  0  0  0  0  0
    0.5336   -3.0305   -0.5409 N   0  0  0  0  0  0  0  0  0  0  0  0
    0.2534    0.6586    1.2913 O   0  0  0  0  0  0  0  0  0  0  0  0
   -0.5281    1.2547   -0.7582 O   0  0  0  0  0  0  0  0  0  0  0  0
    0.4174   -5.3004   -2.5809 S   0  0  0  0  0  0  0  0  0  0  0  0
   -0.7793   -4.6930   -5.9340 H   0  0  0  0  0  0  0  0  0  0  0  0
   -0.8297   -2.4858   -4.4756 H   0  0  0  0  0  0  0  0  0  0  0  0
   -0.6239   -0.7814   -2.5616 H   0  0  0  0  0  0  0  0  0  0  0  0
    0.1312   -6.7322   -4.5400 H   0  0  0  0  0  0  0  0  0  0  0  0
    0.8503   -3.9289   -0.1971 H   0  0  0  0  0  0  0  0  0  0  0  0
   -0.6175    2.1557   -0.3804 H   0  0  0  0  0  0  0  0  0  0  0  0
  1  2  1  0  0  0  0
  1  4  2  0  0  0  0
  2  6  2  0  0  0  0
  3  5  2  0  0  0  0
  3  7  1  0  0  0  0
  4 13  1  0  0  0  0
  5  6  1  0  0  0  0
  5 10  1  0  0  0  0
  6 13  1  0  0  0  0
  7  8  1  0  0  0  0
  7  9  2  0  0  0  0
  8 11  2  0  0  0  0
  8 12  1  0  0  0  0
  9 10  1  0  0  0  0
  1 14  1  0  0  0  0
  2 15  1  0  0  0  0
  3 16  1  0  0  0  0
  4 17  1  0  0  0  0
 10 18  1  0  0  0  0
 12 19  1  0  0  0  0
M  END
$$$$
frag.vs.493
  -OEChem-01121112263D

 20 21  0     0  0  0  0  0  0999 V2000
   -0.4659   -4.6337   -4.9009 C   0  0  0  0  0  0  0  0  0  0  0  0
   -0.4915   -3.4472   -4.1124 C   0  0  0  0  0  0  0  0  0  0  0  0
   -0.2303   -1.3824   -1.7538 C   0  0  0  0  0  0  0  0  0  0  0  0
    0.0068   -5.7161   -4.1918 C   0  0  0  0  0  0  0  0  0  0  0  0
    0.0707   -2.7221   -1.7863 C   0  0  0  0  0  0  0  0  0  0  0  0
   -0.0376   -3.6680   -2.8305 C   0  0  0  0  0  0  0  0  0  0  0  0
    0.0890   -0.9817   -0.4426 C   0  0  0  0  0  0  0  0  0  0  0  0
   -0.0393    0.3651    0.1396 C   0  0  0  0  0  0  0  0  0  0  0  0
    0.5568   -1.9856    0.3039 N   0  0  0  0  0  0  0  0  0  0  0  0
    0.5336   -3.0305   -0.5409 N   0  0  0  0  0  0  0  0  0  0  0  0
   -1.1684    0.4168    1.0133 O   0  0  0  0  0  0  0  0  0  0  0  0
    0.4171   -5.3001   -2.5822 S   0  0  0  0  0  0  0  0  0  0  0  0
   -0.7790   -4.6908   -5.9352 H   0  0  0  0  0  0  0  0  0  0  0  0
   -0.8293   -2.4844   -4.4757 H   0  0  0  0  0  0  0  0  0  0  0  0
   -0.6219   -0.7807   -2.5620 H   0  0  0  0  0  0  0  0  0  0  0  0
    0.1309   -6.7309   -4.5421 H   0  0  0  0  0  0  0  0  0  0  0  0
    0.8531    0.6564    0.7235 H   0  0  0  0  0  0  0  0  0  0  0  0
   -0.1735    1.1417   -0.6356 H   0  0  0  0  0  0  0  0  0  0  0  0
    0.8501   -3.9289   -0.1970 H   0  0  0  0  0  0  0  0  0  0  0  0
   -1.2014    1.3195    1.3634 H   0  0  0  0  0  0  0  0  0  0  0  0
  1  2  1  0  0  0  0
  1  4  2  0  0  0  0
  2  6  2  0  0  0  0
  3  5  2  0  0  0  0
  3  7  1  0  0  0  0
  4 12  1  0  0  0  0
  5  6  1  0  0  0  0
  5 10  1  0  0  0  0
  6 12  1  0  0  0  0
  7  8  1  0  0  0  0
  7  9  2  0  0  0  0
  8 11  1  0  0  0  0
  9 10  1  0  0  0  0
  1 13  1  0  0  0  0
  2 14  1  0  0  0  0
  3 15  1  0  0  0  0
  4 16  1  0  0  0  0
  8 17  1  0  0  0  0
  8 18  1  0  0  0  0
 10 19  1  0  0  0  0
 11 20  1  0  0  0  0
M  END
$$$$
frag.vs.494
  -OEChem-01121112263D

 13 13  0     0  0  0  0  0  0999 V2000
   -0.2528    0.8087   -2.0577 C   0  0  0  0  0  0  0  0  0  0  0  0
   -0.4682   -0.0882   -0.9718 C   0  0  0  0  0  0  0  0  0  0  0  0
   -0.9783    0.4538   -3.1737 C   0  0  0  0  0  0  0  0  0  0  0  0
   -1.3504   -1.0945   -1.2990 C   0  0  0  0  0  0  0  0  0  0  0  0
   -1.8295   -2.2094   -0.4535 C   0  0  0  0  0  0  0  0  0  0  0  0
   -2.4936   -1.6934    0.6987 O   0  0  0  0  0  0  0  0  0  0  0  0
   -1.9146   -0.9556   -2.9098 S   0  0  0  0  0  0  0  0  0  0  0  0
    0.4002    1.6709   -2.0228 H   0  0  0  0  0  0  0  0  0  0  0  0
    0.0016    0.0052   -0.0008 H   0  0  0  0  0  0  0  0  0  0  0  0
   -1.0031    0.9544   -4.1313 H   0  0  0  0  0  0  0  0  0  0  0  0
   -2.5367   -2.8624   -0.9924 H   0  0  0  0  0  0  0  0  0  0  0  0
   -0.9991   -2.8512   -0.1137 H   0  0  0  0  0  0  0  0  0  0  0  0
   -2.7854   -2.4606    1.2145 H   0  0  0  0  0  0  0  0  0  0  0  0
  1  2  1  0  0  0  0
  1  3  2  0  0  0  0
  2  4  2  0  0  0  0
  3  7  1  0  0  0  0
  4  5  1  0  0  0  0
  4  7  1  0  0  0  0
  5  6  1  0  0  0  0
  1  8  1  0  0  0  0
  2  9  1  0  0  0  0
  3 10  1  0  0  0  0
  5 11  1  0  0  0  0
  5 12  1  0  0  0  0
  6 13  1  0  0  0  0
M  END
$$$$
frag.vs.495
  -OEChem-01121112263D

 21 22  0     0  0  0  0  0  0999 V2000
    0.6300    0.3760    1.9832 C   0  0  0  0  0  0  0  0  0  0  0  0
    0.3254   -0.4788    0.9296 C   0  0  0  0  0  0  0  0  0  0  0  0
    0.8377   -0.1446    3.2556 C   0  0  0  0  0  0  0  0  0  0  0  0
    1.7341   -1.7256    5.7472 C   0  0  0  0  0  0  0  0  0  0  0  0
    1.6571   -2.6114    6.8606 C   0  0  0  0  0  0  0  0  0  0  0  0
    0.2408   -1.8353    1.1987 C   0  0  0  0  0  0  0  0  0  0  0  0
    0.7299   -1.5161    3.4206 C   0  0  0  0  0  0  0  0  0  0  0  0
    0.9296   -2.1325    4.7057 C   0  0  0  0  0  0  0  0  0  0  0  0
    0.7965   -3.6616    6.6276 C   0  0  0  0  0  0  0  0  0  0  0  0
    0.4542   -4.7458    7.4898 C   0  0  0  0  0  0  0  0  0  0  0  0
    0.4359   -2.3780    2.4214 N   0  0  0  0  0  0  0  0  0  0  0  0
   -0.3371   -5.6802    7.2311 O   0  0  0  0  0  0  0  0  0  0  0  0
    1.0895   -4.7011    8.7050 O   0  0  0  0  0  0  0  0  0  0  0  0
    0.0861   -3.5771    5.0718 S   0  0  0  0  0  0  0  0  0  0  0  0
    0.7055    1.4457    1.8129 H   0  0  0  0  0  0  0  0  0  0  0  0
    0.1604   -0.0955   -0.0708 H   0  0  0  0  0  0  0  0  0  0  0  0
    1.0762    0.5151    4.0837 H   0  0  0  0  0  0  0  0  0  0  0  0
    2.3512   -0.8360    5.7197 H   0  0  0  0  0  0  0  0  0  0  0  0
    2.2074   -2.4806    7.7841 H   0  0  0  0  0  0  0  0  0  0  0  0
    0.0076   -2.5442    0.4111 H   0  0  0  0  0  0  0  0  0  0  0  0
    0.8615   -5.4429    9.3051 H   0  0  0  0  0  0  0  0  0  0  0  0
  1  2  1  0  0  0  0
  1  3  2  0  0  0  0
  2  6  2  0  0  0  0
  3  7  1  0  0  0  0
  4  5  1  0  0  0  0
  4  8  2  0  0  0  0
  5  9  2  0  0  0  0
  6 11  1  0  0  0  0
  7  8  1  0  0  0  0
  7 11  2  0  0  0  0
  8 14  1  0  0  0  0
  9 10  1  0  0  0  0
  9 14  1  0  0  0  0
 10 12  2  0  0  0  0
 10 13  1  0  0  0  0
  1 15  1  0  0  0  0
  2 16  1  0  0  0  0
  3 17  1  0  0  0  0
  4 18  1  0  0  0  0
  5 19  1  0  0  0  0
  6 20  1  0  0  0  0
 13 21  1  0  0  0  0
M  END
$$$$
frag.vs.496
  -OEChem-01121112263D

 29 30  0     0  0  0  0  0  0999 V2000
    4.0366   -1.7112    6.1888 C   0  0  0  0  0  0  0  0  0  0  0  0
    3.3901   -2.4758    7.1599 C   0  0  0  0  0  0  0  0  0  0  0  0
    4.4759   -2.3100    5.0080 C   0  0  0  0  0  0  0  0  0  0  0  0
    3.6223   -4.4380    5.7696 C   0  0  0  0  0  0  0  0  0  0  0  0
    2.7837   -5.9660    8.1370 C   0  0  0  0  0  0  0  0  0  0  0  0
    3.1830   -3.8392    6.9504 C   0  0  0  0  0  0  0  0  0  0  0  0
    4.2688   -3.6734    4.7985 C   0  0  0  0  0  0  0  0  0  0  0  0
    2.5180   -4.6256    7.9509 C   0  0  0  0  0  0  0  0  0  0  0  0
    1.1245   -5.0121    9.5998 C   0  0  0  0  0  0  0  0  0  0  0  0
    0.0958   -4.7997   10.6406 C   0  0  0  0  0  0  0  0  0  0  0  0
    6.3664   -5.7261    2.4820 C   0  0  0  0  0  0  0  0  0  0  0  0
    4.7376   -4.3124    3.5353 C   0  0  0  0  0  0  0  0  0  0  0  0
    1.5666   -4.0769    8.7885 N   0  0  0  0  0  0  0  0  0  0  0  0
    5.9287   -5.0999    3.7288 N   0  0  0  0  0  0  0  0  0  0  0  0
    1.8099   -6.5740    9.4112 S   0  0  0  0  0  0  0  0  0  0  0  0
    4.1970   -0.6492    6.3513 H   0  0  0  0  0  0  0  0  0  0  0  0
    3.0545   -1.9941    8.0752 H   0  0  0  0  0  0  0  0  0  0  0  0
    4.9786   -1.7059    4.2573 H   0  0  0  0  0  0  0  0  0  0  0  0
    3.4644   -5.5010    5.5994 H   0  0  0  0  0  0  0  0  0  0  0  0
    3.4787   -6.6041    7.6088 H   0  0  0  0  0  0  0  0  0  0  0  0
   -0.9138   -4.9834   10.2407 H   0  0  0  0  0  0  0  0  0  0  0  0
    0.2425   -5.4668   11.5059 H   0  0  0  0  0  0  0  0  0  0  0  0
    0.1194   -3.7716   11.0381 H   0  0  0  0  0  0  0  0  0  0  0  0
    5.5741   -6.3655    2.0844 H   0  0  0  0  0  0  0  0  0  0  0  0
    7.2564   -6.3366    2.6578 H   0  0  0  0  0  0  0  0  0  0  0  0
    6.6074   -4.9611    1.7391 H   0  0  0  0  0  0  0  0  0  0  0  0
    3.9676   -4.9762    3.1176 H   0  0  0  0  0  0  0  0  0  0  0  0
    4.9624   -3.5631    2.7638 H   0  0  0  0  0  0  0  0  0  0  0  0
    6.6883   -4.5076    4.0791 H   0  0  0  0  0  0  0  0  0  0  0  0
  1  2  2  0  0  0  0
  1  3  1  0  0  0  0
  2  6  1  0  0  0  0
  3  7  2  0  0  0  0
  4  6  2  0  0  0  0
  4  7  1  0  0  0  0
  5  8  2  0  0  0  0
  5 15  1  0  0  0  0
  6  8  1  0  0  0  0
  7 12  1  0  0  0  0
  8 13  1  0  0  0  0
  9 10  1  0  0  0  0
  9 13  2  0  0  0  0
  9 15  1  0  0  0  0
 11 14  1  0  0  0  0
 12 14  1  0  0  0  0
  1 16  1  0  0  0  0
  2 17  1  0  0  0  0
  3 18  1  0  0  0  0
  4 19  1  0  0  0  0
  5 20  1  0  0  0  0
 10 21  1  0  0  0  0
 10 22  1  0  0  0  0
 10 23  1  0  0  0  0
 11 24  1  0  0  0  0
 11 25  1  0  0  0  0
 11 26  1  0  0  0  0
 12 27  1  0  0  0  0
 12 28  1  0  0  0  0
 14 29  1  0  0  0  0
M  END
$$$$
frag.vs.497
  -OEChem-01121112263D

 23 24  0     0  0  0  0  0  0999 V2000
    1.0792   -3.3455   -0.3349 C   0  0  0  0  0  0  0  0  0  0  0  0
    2.0354   -2.6588    0.3713 C   0  0  0  0  0  0  0  0  0  0  0  0
    1.6880   -1.3045    0.5892 C   0  0  0  0  0  0  0  0  0  0  0  0
    0.4945   -0.9613    0.0039 C   0  0  0  0  0  0  0  0  0  0  0  0
    4.1200   -2.2283    1.2267 C   0  0  0  0  0  0  0  0  0  0  0  0
    3.4509   -1.1201    2.0457 C   0  0  0  0  0  0  0  0  0  0  0  0
   -1.5045    1.9598    1.1847 C   0  0  0  0  0  0  0  0  0  0  0  0
   -0.1999    0.3440   -0.0188 C   0  0  0  0  0  0  0  0  0  0  0  0
   -0.8380    0.6613    1.2392 N   0  0  0  0  0  0  0  0  0  0  0  0
    3.1751   -3.2336    0.8217 O   0  0  0  0  0  0  0  0  0  0  0  0
    2.4500   -0.4258    1.2816 O   0  0  0  0  0  0  0  0  0  0  0  0
   -0.2254   -2.3152   -0.7737 S   0  0  0  0  0  0  0  0  0  0  0  0
    1.0787   -4.3857   -0.6293 H   0  0  0  0  0  0  0  0  0  0  0  0
    4.5937   -1.8183    0.3257 H   0  0  0  0  0  0  0  0  0  0  0  0
    4.8936   -2.7215    1.8237 H   0  0  0  0  0  0  0  0  0  0  0  0
    2.9735   -1.5299    2.9446 H   0  0  0  0  0  0  0  0  0  0  0  0
    4.1963   -0.3834    2.3614 H   0  0  0  0  0  0  0  0  0  0  0  0
   -0.7814    2.7434    0.9438 H   0  0  0  0  0  0  0  0  0  0  0  0
   -1.9640    2.1895    2.1499 H   0  0  0  0  0  0  0  0  0  0  0  0
   -2.2841    1.9526    0.4183 H   0  0  0  0  0  0  0  0  0  0  0  0
    0.4938    1.1723   -0.2441 H   0  0  0  0  0  0  0  0  0  0  0  0
   -0.9856    0.3834   -0.7925 H   0  0  0  0  0  0  0  0  0  0  0  0
   -1.5328   -0.0550    1.4656 H   0  0  0  0  0  0  0  0  0  0  0  0
  1  2  2  0  0  0  0
  1 12  1  0  0  0  0
  2  3  1  0  0  0  0
  2 10  1  0  0  0  0
  3  4  2  0  0  0  0
  3 11  1  0  0  0  0
  4  8  1  0  0  0  0
  4 12  1  0  0  0  0
  5  6  1  0  0  0  0
  5 10  1  0  0  0  0
  6 11  1  0  0  0  0
  7  9  1  0  0  0  0
  8  9  1  0  0  0  0
  1 13  1  0  0  0  0
  5 14  1  0  0  0  0
  5 15  1  0  0  0  0
  6 16  1  0  0  0  0
  6 17  1  0  0  0  0
  7 18  1  0  0  0  0
  7 19  1  0  0  0  0
  7 20  1  0  0  0  0
  8 21  1  0  0  0  0
  8 22  1  0  0  0  0
  9 23  1  0  0  0  0
M  END
$$$$
frag.vs.498
  -OEChem-01121112263D

 19 20  0     0  0  0  0  0  0999 V2000
    0.9869    0.4202    0.1408 C   0  0  0  0  0  0  0  0  0  0  0  0
    4.4760   -0.2997   -0.0202 C   0  0  0  0  0  0  0  0  0  0  0  0
    1.2316    1.7192    0.5326 C   0  0  0  0  0  0  0  0  0  0  0  0
    2.2159   -0.2653   -0.0445 C   0  0  0  0  0  0  0  0  0  0  0  0
    3.3185    0.5006    0.2008 C   0  0  0  0  0  0  0  0  0  0  0  0
    4.0002   -1.5371   -0.3960 C   0  0  0  0  0  0  0  0  0  0  0  0
    4.7850   -2.6888   -0.7286 C   0  0  0  0  0  0  0  0  0  0  0  0
    1.7374   -2.6030   -0.7483 C   0  0  0  0  0  0  0  0  0  0  0  0
    2.6314   -1.5212   -0.4122 N   0  0  0  0  0  0  0  0  0  0  0  0
    4.3468   -3.8068   -1.0682 O   0  0  0  0  0  0  0  0  0  0  0  0
    6.1341   -2.4679   -0.6453 O   0  0  0  0  0  0  0  0  0  0  0  0
    2.9014    2.1138    0.6757 S   0  0  0  0  0  0  0  0  0  0  0  0
   -0.0008    0.0014    0.0005 H   0  0  0  0  0  0  0  0  0  0  0  0
    5.5114   -0.0060    0.0837 H   0  0  0  0  0  0  0  0  0  0  0  0
    0.4964    2.4815    0.7480 H   0  0  0  0  0  0  0  0  0  0  0  0
    1.5439   -2.5590   -1.8233 H   0  0  0  0  0  0  0  0  0  0  0  0
    2.2030   -3.5561   -0.4824 H   0  0  0  0  0  0  0  0  0  0  0  0
    0.8062   -2.4901   -0.1861 H   0  0  0  0  0  0  0  0  0  0  0  0
    6.6805   -3.2505   -0.8721 H   0  0  0  0  0  0  0  0  0  0  0  0
  1  3  2  0  0  0  0
  1  4  1  0  0  0  0
  2  5  1  0  0  0  0
  2  6  2  0  0  0  0
  3 12  1  0  0  0  0
  4  5  2  0  0  0  0
  4  9  1  0  0  0  0
  5 12  1  0  0  0  0
  6  7  1  0  0  0  0
  6  9  1  0  0  0  0
  7 10  2  0  0  0  0
  7 11  1  0  0  0  0
  8  9  1  0  0  0  0
  1 13  1  0  0  0  0
  2 14  1  0  0  0  0
  3 15  1  0  0  0  0
  8 16  1  0  0  0  0
  8 17  1  0  0  0  0
  8 18  1  0  0  0  0
 11 19  1  0  0  0  0
M  END
$$$$
frag.vs.499
  -OEChem-01121112263D

 20 21  0     0  0  0  0  0  0999 V2000
    0.9869    0.4202    0.1408 C   0  0  0  0  0  0  0  0  0  0  0  0
    4.4760   -0.2997   -0.0202 C   0  0  0  0  0  0  0  0  0  0  0  0
    1.2316    1.7192    0.5326 C   0  0  0  0  0  0  0  0  0  0  0  0
    2.2159   -0.2653   -0.0445 C   0  0  0  0  0  0  0  0  0  0  0  0
    3.3185    0.5006    0.2008 C   0  0  0  0  0  0  0  0  0  0  0  0
    4.0002   -1.5371   -0.3960 C   0  0  0  0  0  0  0  0  0  0  0  0
    1.7371   -2.6032   -0.7461 C   0  0  0  0  0  0  0  0  0  0  0  0
    4.7601   -2.7563   -0.7501 C   0  0  0  0  0  0  0  0  0  0  0  0
    2.6314   -1.5212   -0.4122 N   0  0  0  0  0  0  0  0  0  0  0  0
    4.6967   -3.6948    0.3220 O   0  0  0  0  0  0  0  0  0  0  0  0
    2.9014    2.1138    0.6757 S   0  0  0  0  0  0  0  0  0  0  0  0
   -0.0006    0.0012    0.0003 H   0  0  0  0  0  0  0  0  0  0  0  0
    5.5118   -0.0077    0.0814 H   0  0  0  0  0  0  0  0  0  0  0  0
    0.4958    2.4810    0.7492 H   0  0  0  0  0  0  0  0  0  0  0  0
    1.5417   -2.5599   -1.8208 H   0  0  0  0  0  0  0  0  0  0  0  0
    2.2034   -3.5561   -0.4805 H   0  0  0  0  0  0  0  0  0  0  0  0
    0.8069   -2.4903   -0.1823 H   0  0  0  0  0  0  0  0  0  0  0  0
    4.3605   -3.2430   -1.6556 H   0  0  0  0  0  0  0  0  0  0  0  0
    5.8214   -2.5326   -0.9502 H   0  0  0  0  0  0  0  0  0  0  0  0
    5.2069   -4.4694    0.0400 H   0  0  0  0  0  0  0  0  0  0  0  0
  1  3  2  0  0  0  0
  1  4  1  0  0  0  0
  2  5  1  0  0  0  0
  2  6  2  0  0  0  0
  3 11  1  0  0  0  0
  4  5  2  0  0  0  0
  4  9  1  0  0  0  0
  5 11  1  0  0  0  0
  6  8  1  0  0  0  0
  6  9  1  0  0  0  0
  7  9  1  0  0  0  0
  8 10  1  0  0  0  0
  1 12  1  0  0  0  0
  2 13  1  0  0  0  0
  3 14  1  0  0  0  0
  7 15  1  0  0  0  0
  7 16  1  0  0  0  0
  7 17  1  0  0  0  0
  8 18  1  0  0  0  0
  8 19  1  0  0  0  0
 10 20  1  0  0  0  0
M  END
$$$$
frag.vs.500
  -OEChem-01121112263D

 21 22  0     0  0  0  0  0  0999 V2000
   -0.7339   -0.5961    0.5241 C   0  0  0  0  0  0  0  0  0  0  0  0
   -1.7595   -0.2712    1.3971 C   0  0  0  0  0  0  0  0  0  0  0  0
   -1.8385   -2.3622    1.2075 C   0  0  0  0  0  0  0  0  0  0  0  0
   -0.1352   -2.9478   -0.2476 C   0  0  0  0  0  0  0  0  0  0  0  0
   -0.6526   -4.1575    0.0262 C   0  0  0  0  0  0  0  0  0  0  0  0
   -2.0982    1.0501    1.8337 C   0  0  0  0  0  0  0  0  0  0  0  0
   -4.7789    2.1060    4.1359 C   0  0  0  0  0  0  0  0  0  0  0  0
   -3.6027    2.3248    3.2084 C   0  0  0  0  0  0  0  0  0  0  0  0
   -2.4512   -1.3899    1.8238 N   0  0  0  0  0  0  0  0  0  0  0  0
   -0.8072   -1.9513    0.4192 N   0  0  0  0  0  0  0  0  0  0  0  0
   -1.5119    2.0986    1.4852 O   0  0  0  0  0  0  0  0  0  0  0  0
   -3.1667    1.0589    2.7014 O   0  0  0  0  0  0  0  0  0  0  0  0
   -2.0233   -4.0882    1.1484 S   0  0  0  0  0  0  0  0  0  0  0  0
    0.0013   -0.0025   -0.0020 H   0  0  0  0  0  0  0  0  0  0  0  0
    0.6975   -2.7268   -0.8975 H   0  0  0  0  0  0  0  0  0  0  0  0
   -0.2950   -5.0945   -0.3764 H   0  0  0  0  0  0  0  0  0  0  0  0
   -5.6122    1.6369    3.6054 H   0  0  0  0  0  0  0  0  0  0  0  0
   -4.4925    1.4683    4.9787 H   0  0  0  0  0  0  0  0  0  0  0  0
   -5.1196    3.0573    4.5580 H   0  0  0  0  0  0  0  0  0  0  0  0
   -2.7728    2.7942    3.7452 H   0  0  0  0  0  0  0  0  0  0  0  0
   -3.8907    2.9615    2.3666 H   0  0  0  0  0  0  0  0  0  0  0  0
  1  2  2  0  0  0  0
  1 10  1  0  0  0  0
  2  6  1  0  0  0  0
  2  9  1  0  0  0  0
  3  9  2  0  0  0  0
  3 10  1  0  0  0  0
  3 13  1  0  0  0  0
  4  5  2  0  0  0  0
  4 10  1  0  0  0  0
  5 13  1  0  0  0  0
  6 11  2  0  0  0  0
  6 12  1  0  0  0  0
  7  8  1  0  0  0  0
  8 12  1  0  0  0  0
  1 14  1  0  0  0  0
  4 15  1  0  0  0  0
  5 16  1  0  0  0  0
  7 17  1  0  0  0  0
  7 18  1  0  0  0  0
  7 19  1  0  0  0  0
  8 20  1  0  0  0  0
  8 21  1  0  0  0  0
M  END
$$$$
